64

Zr     -0.416088771316140      2.142733576632294      1.446812988175106
Zr      0.388076515121137     -2.117209854390608     -1.467401743696904
Zr      1.800737570997099     -1.158310522254606      1.505125666026913
Zr     -1.814129046701406      1.178309122712493     -1.534438100790667
Zr      1.594627108842483      1.019475170294353     -1.766923887215244
Zr     -1.606751711364954     -0.998126244438990      1.749085987802645
O      -1.636677107845451      0.743274493155560      0.499148185984469
O       1.612520321574405     -0.716243916679718     -0.517614838443284
O      -0.001615962627623     -1.982951047561348      0.665300145752732
O      -0.015300403643788      2.002719946654885     -0.681880889366000
O      -0.191155061103441     -0.087661930907079     -1.768869428819653
O       0.169102765564866      0.108989637723159      1.761154067645208
O      -1.921580979715397      2.187556921196771      2.752381220293082
O      -1.365923849299677      3.725472021541701      0.721706627412182
O       0.663947630042542      1.963610871888175      3.201244007267616
O       1.234066141525051      3.226512438496201      1.135584569225575
O      -1.282715338316284     -3.165040560256440     -1.166601984954553
O      -0.667302922558695     -1.923977878247645     -3.241002296171476
O       1.302164772491899     -3.721783720299293     -0.754762651374728
O       1.905012730919266     -2.165390500672914     -2.762721264075676
O       1.268572211523032     -2.133882937749462      3.137667229228807
O       2.287276489328729      0.290247698246189      2.894511086253307
O       2.611271936279808     -2.881179546316631      0.982335303344273
O       3.603649323874128     -0.427121779334614      0.794156691833297
O      -3.573255039380296      0.312468280558715     -0.874979306114146
O      -2.727525852041355      2.828042262327055     -0.945141190807643
O      -2.237913432728368     -0.186945121824833     -3.025024728903469
O      -1.275035358072259      2.274218780489627     -3.085842650750165
O       1.047465481616870      2.461517595217543     -3.006174474784931
O       2.445811591756664      2.508957995258077     -0.728265986890460
O       1.921601036932697      0.048870906020165     -3.475694818824860
O       3.537023212536533      0.388401864154477     -1.412021320180023
O      -3.550485944486700     -0.391166701788990      1.369131326518910
O      -1.962136749424441     -0.031128795105372      3.451941078685818
O      -2.453597498115683     -2.517032393822483      0.747817512848629
O      -1.040841493161407     -2.419681374898976      3.005781014644558
C      -2.249229632859190      1.232946607240754      3.574910121255917
C      -2.348940369093088      3.766169527903357     -0.128250708219661
C       1.734024660466316      1.295099748173400      3.502728653509353
C       2.196722148234035      3.293000321967299      0.272187528891778
C      -2.223847056388347     -3.266443406228994     -0.282909395459453
C      -1.702551694969008     -1.225099828657379     -3.590567503045251
C       2.237769661396232     -3.801425314035042      0.143767757099314
C       2.215655448714063     -1.214208264408791     -3.596077175010146
C       0.132462395145538     -2.635825484138275      3.520825213683275
C       4.118489823244924     -0.003289876894647     -0.320294136626358
C      -4.112212535964645     -0.061261912717155      0.246703613365781
C      -0.129121840688100      2.743963924867108     -3.479017088864604
H      -2.191947138457886     -1.553253056566797     -4.501861229206887
H       2.770400846340018     -4.751289605952080      0.201837239205750
H       2.244454711223565      1.624836013524557      4.402257101968320
H      -2.920833109258709      4.694542947596262     -0.160811460127029
H       2.777463471945791     -1.505440582426335     -4.486747007865120
H      -0.158603973044323      3.460678244263227     -4.300067568231599
H       2.898901763909076      4.109209778834695      0.415037875235758
H       5.203676499608695      0.022131593992730     -0.343643516628358
H      -2.924142447432976     -4.082878961006205     -0.434003513297936
H      -5.197562442239893     -0.105318931734566      0.245133913243477
H      -2.822926311589954      1.521916110253582      4.458579213053095
H       0.167477092929818     -3.316837494284234      4.371898406060530
Al     -4.657945501932319     -2.916933522970377      3.342621956373439
H      -4.293928125025057     -1.722661535000665      4.337700216969139
H      -5.590964420460341     -2.562480138367158      2.096129078644909
H      -3.542256254919785     -4.032953327032402      3.101611616871091
