80

Zr      0.113567721340471      1.979300507224193      1.416916918554183
Zr     -0.014635518592498     -2.374923355034796     -1.532943324763776
Zr      1.505103375188831     -1.689832117399685      1.428647077717484
Zr     -1.459213515049303      1.312121160588917     -1.546897595895409
Zr      1.802542649513603      0.513570475166912     -1.863930030351894
Zr     -1.759561360057115     -0.883870952053747      1.714350661386439
O      -1.594473369618687      0.965054220316430      0.595357507475363
O       1.663262307057421     -1.315296369445555     -0.710904916802452
O      -0.346484136293136     -1.782129358329260      0.416310462734820
O       0.396305494417327      1.429867542951574     -0.565697723137733
O      -0.103192217134833     -0.315597322170629     -1.970129621385671
O       0.155327764111173     -0.066778650957422      1.834869755483414
O      -0.855302380545423      2.036943890812973      3.147978590276334
O      -0.966325879278622      3.574533655546803      1.013690718564157
O       1.724053592545170      1.585598440549266      2.647303789185860
O       1.600941667910021      3.156400184292875      0.589879761089790
O      -1.391392079754401     -3.649244173986089     -0.666213091178019
O      -1.702966013804982     -2.021218627235701     -2.642508545789946
O       1.177429534654974     -3.905108157418928     -1.172851332560520
O       0.856037627329338     -2.388130679268736     -3.311464033564850
O       0.642207331084742     -2.912720919188946      2.740270496643273
O       2.026175753619364     -0.687970954335298      3.173630910548795
O       2.310332930750773     -3.377366613954400      0.793509165300279
O       3.332078685832033     -0.912121411961286      1.105913564199675
O      -3.345316670618604      0.697666500518385     -1.145807594655609
O      -2.154974205517055      3.055267465805455     -0.921196232538317
O      -2.070584487835692      0.232344846512824     -3.204042022258407
O      -0.648664831967506      2.459674565806637     -2.953229965793071
O       1.245668338894214      1.282809541359185     -3.615447167370267
O       2.309289670041796      2.500479549658146     -1.555015469392014
O       2.595415182831960     -0.850429453702203     -3.075841913682483
O       3.471514413867169      0.435034444142148     -0.797989219052024
O      -3.453549940067942     -0.753400388131422      0.683834418960622
O      -2.568831079542980      0.469298709719818      2.923711889519457
O      -2.265778462443552     -2.867732378622345      1.372612537946063
O      -1.202118784071947     -1.687780786627723      3.454213897327880
C      -1.974219286145494      1.473201948536801      3.499224758489662
C      -1.828997133455584      3.821173149172743      0.075289120326961
C       2.140546942981850      0.590007132765364      3.372889086035430
C       2.262962087002371      3.280212396585520     -0.519650492094485
C      -2.131401966355675     -3.711627016336777      0.397198506944082
C      -2.184589514254885     -1.051167750718947     -3.361507403980437
C       2.022494482497126     -4.142560673554470     -0.215509619492471
C       1.955997944027889     -1.804217026827962     -3.690403106943718
C      -0.296342587588359     -2.612665268595197      3.592052705237011
C       3.912816171881076     -0.073997747814210      0.307690465091300
C      -3.953260960785712     -0.063694594550508     -0.292174752198292
C       0.307789681345342      2.168112494390009     -3.786678888627844
H      -2.779906972574474     -1.359991197419467     -4.216642354547409
H       2.556843788366048     -5.091360301302470     -0.268462500817830
H       2.674461725730456      0.868862531031012      4.277309729273563
H      -2.338919290125782      4.782879263002649      0.129985417958858
H       2.388239997114075     -2.157097613499404     -4.628761609856892
H       0.331114929068568      2.731133823587153     -4.722086323251004
H       2.862685927383839      4.181154918795978     -0.596899640747015
H       4.904700593027830      0.249818940580310      0.608677878234386
H      -2.717287116887941     -4.619447674990057      0.493246558160682
H      -5.028697637426479     -0.146073938883614     -0.421323609546176
H      -2.470035673178635      1.889333731150298      4.377756058126390
H      -0.331828641524785     -3.201151417288437      4.511830383598648
Al      7.061892890764522     -1.681385098949376     -0.819224906997306
Al      5.025753489346320     -2.841218958719824     -2.125743960471340
H       4.771230488323449     -3.027063085259808     -3.774603084946472
H       4.518050228585442     -4.348337948113254     -1.891610553580858
H       6.408638350363591     -3.160776416073412     -1.230076092681984
H       8.354701359657264     -1.732696941051582     -1.765587991281556
H       6.362392589144712     -0.350119786400389     -1.564839754528622
H       3.728750724558281     -2.349212857471866     -1.306703982647374
Al      5.604345330798699     -1.805736171938688     -4.545247166463287
H       5.522170542916353     -0.412460612207386     -3.620289032708641
H       7.155373851019068     -2.150382195315681     -4.326651527832405
H       6.540658751634763     -1.538866512282721      0.690120912852494
Al      5.972721504410334      0.893570665158414     -2.646821275080298
H       7.525955754506619      1.347006854743629     -2.166226458797971
H       4.893988811614520      2.005552879151976     -2.180620494932684
H       4.506091389244870     -1.324958046054125     -5.609364944472071
Al      8.301416183697402      1.739377138650360     -3.592960124542437
H       7.994951935043954      3.305282756317247     -3.448981685085853
H       6.747827055372364      1.356638090152386     -4.072972384643428
H       8.891211831077412      0.272853527668308     -3.855505929365120
