80

Zr     -0.231612533058277      2.106870812302803      1.769904139296129
Zr     -0.140955931163858     -2.138572798024380     -1.338338133213810
Zr      1.752941670913686     -1.306675744178379      1.398305413961895
Zr     -2.051718376810409      1.256838112625039     -0.974500370959566
Zr      1.212787125774440      0.989096040757063     -1.762861563555558
Zr     -1.508531893598527     -1.042807096527204      2.219144990594643
O      -1.836489669466418      0.817725351865863      1.150179841123943
O       1.504709805274031     -0.893548834753386     -0.720462724523982
O      -0.176803945588929     -1.736342557729418      0.705341626666309
O      -0.112355582942075      1.631549900241283     -0.234195727095487
O      -0.547395158162784     -0.121383011329487     -1.625101609212025
O       0.234874179861194      0.076475222913796      2.057189910291266
O      -0.843954820805489      1.961491406663185      3.645475521372549
O      -1.669419999094751      3.452841874945345      1.610292627603776
O       1.622956299297805      1.976183985163408      2.654652069918896
O       0.832229351579840      3.581604812622320      0.794862909406163
O      -1.438340805444414     -3.457415371875586     -0.409452995078669
O      -1.880895492758712     -1.941096791694640     -2.452839228318362
O       1.118880123091168     -3.622972717731104     -1.039471015372637
O       0.688155234037715     -2.065516940524013     -3.132418181976732
O       1.348091070316322     -2.643030636652972      2.813199964916083
O       2.393098276723570     -0.213322417567429      3.035034560066592
O       2.632670324151787     -2.872312108717567      0.565074594000873
O       3.418990560219208     -0.345268902096454      0.793061067036441
O      -3.629886234958633      0.135201211820519     -0.461216440867420
O      -3.038507840571250      2.745986699897423     -0.138350055543961
O      -2.636542506556226      0.272909274926425     -2.709331414326167
O      -1.587930201686083      2.669736497846215     -2.301193559316696
O       0.272784111332337      1.750056695318410     -3.351940853669539
O       1.465225327720397      3.018762299639823     -1.398893675886338
O       2.039016000554397     -0.164268366591483     -3.143634592146429
O       3.045957279498303      1.103395102078236     -1.002267421862396
O      -3.337937446563854     -1.175437344820051      1.450214903329774
O      -2.287437789255176      0.130707863177336      3.616238779970740
O      -1.798883591296711     -3.064935843456208      1.880866068252785
O      -0.569476600773611     -1.784945512674313      3.813552608947252
C      -1.749841812533332      1.182962617006008      4.161631377121854
C      -2.695560835707319      3.553113381144619      0.819876504440893
C       2.335133549454804      1.065651715070180      3.249294105893839
C       1.372817470554264      3.795456707870191     -0.364597162486832
C      -1.862941587675708     -3.751126206847417      0.781965380663681
C      -2.580696404263958     -0.991217215366135     -2.997666725308864
C       2.193678539170399     -3.719339058253624     -0.316353961764123
C       1.600993881339676     -1.286335098195155     -3.632464263506039
C       0.490625126873351     -2.539208344990204      3.787182537524170
C       3.776313319954502      0.506555084211307     -0.114771061515924
C      -3.991836042239286     -0.740999533712014      0.420630084777708
C      -0.756696181837403      2.545744010759047     -3.296632298413278
H      -3.216513045530045     -1.303554781998072     -3.820967789990352
H       2.798145950204380     -4.614039606517593     -0.467663778548801
H       2.985926984052318      1.430750327707000      4.039232800190389
H      -3.353942414150331      4.405301307682687      0.990161639644480
H       2.052657876722686     -1.612632319991045     -4.570202129024523
H      -0.938661580731156      3.175475378644913     -4.170923195590944
H       1.803202620838584      4.782846176994059     -0.493389274922162
H       4.830957063610400      0.766748381382418     -0.123628304415501
H      -2.341101815321793     -4.721507958165488      0.873126429731970
H      -4.979525149006963     -1.168615556986844      0.275365164662406
H      -2.107200507665565      1.448873615460671      5.158069264793385
H       0.677619450981647     -3.151802922532263      4.671781509453285
Al     -5.076730343470117      1.907082019173211      3.143651527648995
Al     -6.287969119941036      1.877492424600509      0.744995533404244
H      -7.942668310691468      1.620203830276109      0.777028752247297
H      -6.747297276302898      3.304399449350460      0.151737893190336
H      -5.758690682431419      2.883000387515812      1.976658545048380
H      -6.261363727303238      2.071891870858065      4.211928489488476
H      -5.427253865237966      0.274973645113773      2.989059592621519
H      -5.556259228629983      1.993590692807597     -0.692735379712310
Al     -8.193156890906053      0.021791478881943      1.185474584896663
H      -7.137712354576006     -0.501082503100579      2.374253572599406
H      -9.306394801297877      0.352348525471386      2.291119722540416
H      -3.725420499464153      1.638792505542985      2.328078285318343
Al     -5.975968101984172     -1.288481914805646      3.333792345346910
H      -4.347712599453950     -1.255003065597628      3.790820411575866
H      -5.605491006237215     -2.474649378272596      2.301876056232237
H      -7.494335392522081     -0.797450554847149     -0.003957981626568
Al     -4.396777906528134     -1.556560775955848      5.436088426808086
H      -4.185911427763222     -3.134475716469989      5.257037986427648
H      -6.015878698094742     -1.534788450756970      5.006572632231492
H      -4.335191378294645     -0.027291992545113      5.910498894549565
