80

Zr     -0.460349177730547      2.081464649685349      1.211786621745452
Zr      0.707736212951528     -1.914540874146288     -1.693639173223160
Zr      1.626903054525122     -1.122154374107435      1.501921796881466
Zr     -1.372055809023843      1.504897238365742     -1.953652601227075
Zr      2.033687678123861      1.162287927637176     -1.799381803935366
Zr     -1.775827694964907     -1.079890244941559      1.110432882337296
O      -1.367248927395028      0.632343699028931     -0.063470709734719
O       1.625213620013058     -0.406404559566474     -0.493683861944373
O       0.036931905327326     -1.841106393550391      0.344948706419919
O       0.321240230189221      2.067456920625257     -0.839877962438781
O       0.263120821875987      0.138782723706838     -2.330244134584053
O      -0.126814474235870      0.033953596643333      1.782918298076665
O      -2.190409776268690      2.033386260023256      2.180844577352907
O      -1.171280258644346      3.800853759424562      0.550915249392504
O       0.357770661692913      1.957274760626068      3.106152830440569
O       1.313498453435083      3.097655538738463      1.153836207599377
O      -0.367452997682712     -3.614830081143944     -1.188978676846661
O      -0.942085625575550     -1.943356947897854     -2.881782361472392
O       2.270022198214849     -3.008272484605040     -1.142621858177539
O       1.687482880034107     -1.837352157066644     -3.403740713941047
O       0.827912704668770     -1.947963558181676      3.126905776241539
O       2.092638643709707      0.399788279126325      2.776142394965206
O       2.254248804305024     -2.985540628090500      1.185089500146018
O       3.561618187117066     -0.749533458997157      0.935315571881200
O      -3.320804566686924      1.337668684127523     -1.271290261476302
O      -1.790269757622398      3.420883544508268     -1.662430214143431
O      -2.146461405699316      0.051009938748622     -3.065998425892307
O      -0.589672360510638      2.243750937183768     -3.619479625388061
O       1.627460782573807      2.662145229931819     -3.033920530433378
O       2.770974789618092      2.573306020320822     -0.597273668036760
O       2.638982616721258      0.287607786705063     -3.470346399380990
O       3.814896183247631      0.343571711628871     -1.130021547235962
O      -3.529314573288994     -0.426281214617402      0.268950758305985
O      -2.592861771606842     -0.201532560652027      2.694027065647663
O      -2.225160511040065     -2.681457102238985     -0.082061831548923
O      -1.337142404023683     -2.493855843521247      2.441527633847398
C      -2.746797480802236      1.077945361281164      2.867202785327962
C      -1.658760852189202      4.155556162474912     -0.599772433900561
C       1.434871330942994      1.308988724724258      3.436476883160717
C       2.391183662325143      3.234707040999435      0.448383156368404
C      -1.548730050460567     -3.640351489823432     -0.646773098715816
C      -1.931956786511649     -1.207707080392837     -3.277486284287452
C       2.561608096331494     -3.495868558351621      0.028658413887336
C       2.433434423086663     -0.911188531180369     -3.926426870811768
C      -0.311100187338097     -2.567230177726872      3.238649163628245
C       4.232786947477940     -0.235346870434059     -0.047966293597677
C      -3.970405887855102      0.480621043433416     -0.547141266424615
C       0.565130945275957      2.826578386796777     -3.767624886196407
H      -2.680645587163950     -1.717255639589566     -3.875979644653705
H       3.135441704790914     -4.424688147640918      0.042478743837647
H       1.856575846846648      1.576231994000467      4.403235563220349
H      -1.994076716831415      5.189482538326392     -0.683456632707939
H       2.938389009696966     -1.167444828995641     -4.858204910267428
H       0.654317527141026      3.530459606416764     -4.597585172157372
H       3.076175920422455      4.005237893203048      0.787897468779212
H       5.310827928180771     -0.315158064682580      0.042272976643349
H      -2.052763987799600     -4.603736235244967     -0.685119128942719
H      -5.050840545643074      0.540649041446334     -0.625118013802105
H      -3.426134115377881      1.382618465201463      3.665406433950109
H      -0.418280068023662     -3.225810096192344      4.102166846969126
Al     -3.656019277249463     -0.633501944358373     -6.745319326034419
Al     -4.106326089704516      1.462380401879126     -5.092337718197512
H      -3.961761310224310      2.803491812572173     -6.093471978038175
H      -5.675805585565454      1.810446420172998     -5.182856234638711
H      -4.611363911473322     -0.085066644885490     -5.494782059684312
H      -3.896047405722304      0.315351796931881     -8.016901381555572
H      -2.053334802452810     -0.259701167766861     -6.447172491890554
H      -4.452136434790147      1.810457060215193     -3.555318740542273
Al     -2.330098751520400      3.106597814916376     -6.261138754098983
H      -1.411580248593254      1.724191459712270     -6.020078003112371
H      -2.281625950304864      2.961240035315799     -7.856792664371742
H      -3.509832160568298     -2.140499064629603     -6.220285511394303
Al     -0.488233371512296      0.313984116959938     -6.150712727302440
H       0.400384123831828     -0.032138282015970     -7.543082678448519
H       0.013973531547512     -0.210213507283971     -4.713540227267520
H      -2.037503709093619      3.918331730087022     -4.909058213805483
Al      1.506842066860312      1.220751831697830     -7.622296313844873
H       2.654713723510938      0.434952238806314     -6.828231519020929
H       0.625380332666565      1.584839373198605     -6.251230918455708
H       0.612555344010550      2.136429332557497     -8.586077561520561
