92

Zr     -0.263391638151576      1.925933696604490      1.285538886133934
Zr      0.286594695550690     -2.306459669628486     -1.554910171175528
Zr      1.880174690517637     -1.369776707772220      1.288260880784891
Zr     -1.865387041069170      0.982148754126224     -1.560836246924624
Zr      1.523450147504180      0.795352428952363     -2.054130348918807
Zr     -1.510074435300173     -1.188733182562627      1.772241983689367
O      -1.451685435694239      0.411622413343807      0.394531580362363
O       1.450802372134321     -0.777829506298698     -0.655333689288186
O       0.016006788993645     -2.135800668204167      0.589153423964335
O       0.000558305305755      1.746674732326064     -0.862368629429720
O      -0.262615427993231     -0.288683697538696     -2.102279397927415
O       0.272355892018984     -0.098388290654967      1.825116121751657
O      -1.554497512904345      1.961213250344321      2.792081221957350
O      -1.349814543445852      3.469378127640837      0.689126313161430
O       1.111855179342002      1.897732633368687      2.829638618935470
O       1.277654958770021      3.130685720298096      0.710945492984805
O      -1.232746449364553     -3.538846643289284     -0.986178873759915
O      -1.095115830567028     -2.292346678833361     -3.091946137914900
O       1.397807756081378     -3.835303400298296     -0.953232114178119
O       1.561997862071731     -2.339637952667298     -3.076537187178602
O       1.475932577032888     -1.953579368492514      3.154381203010302
O       2.678350807085072      0.264190185717637      2.190999299720460
O       2.341245410243672     -3.279202300892341      1.101022420392724
O       3.644021835557564     -1.165810110228917      0.241030370418108
O      -3.641470836083474      0.726464969271887     -0.543521815935954
O      -2.355452051705776      2.880391281253402     -1.326654412606258
O      -2.658803194361694     -0.642565024025194     -2.496314241480724
O      -1.460261760103788      1.599598665846475     -3.412103296445917
O       0.787785512647928      2.209090669188454     -3.258749175696702
O       2.461874767752430      2.267391424109748     -1.113957980458173
O       1.747895427155227     -0.135693080102102     -3.795907059513767
O       3.420581107004789     -0.000164320922530     -1.789817697653133
O      -3.418715308253703     -0.441673413625528      1.485244250348583
O      -1.759038251288259     -0.244194290017891      3.504395447404664
O      -2.427006464103690     -2.687199667886635      0.836644927297992
O      -0.765416025563382     -2.585289935666597      2.991387449981861
C      -1.862440399346645      1.042547281623903      3.660429821712627
C      -2.077276432239539      3.702212732689383     -0.361016545452898
C       2.230717471983853      1.244216860557085      2.919757328499057
C       2.224414726656684      3.126941716828782     -0.173858665294962
C      -2.184011256096236     -3.541632080227289     -0.106584090153879
C      -2.212542347692820     -1.640413620263655     -3.199800475763580
C       2.074262099594851     -4.092443448007586      0.125404478074782
C       1.858673323050130     -1.421879756675666     -3.950101129658649
C       0.405694551101663     -2.574302175795274      3.561586584336776
C       4.067805451919766     -0.641186937545257     -0.866767161355518
C      -4.071103913305540      0.170949866808418      0.546757932255826
C      -0.386650936994487      2.212504268490761     -3.821877473979840
H      -2.878025518126099     -1.986755343436689     -3.986389981702406
H       2.462342449999281     -5.105514122312560      0.226686901258488
H       2.896702001676917      1.575464971784425      3.713107548656082
H      -2.505268376187887      4.701527105673562     -0.439096287532474
H       2.251934959293410     -1.762819845455927     -4.909306052932939
H      -0.482061319669857      2.795126098462964     -4.740483516781856
H       2.924723067288334      3.955071082451071     -0.111127587503963
H       5.127397694505943     -0.771863619738283     -1.058019073402689
H      -2.880128123866600     -4.372582032033789     -0.174005984938556
H      -5.141366340255995      0.245345095229199      0.706678521800669
H      -2.260220359703419      1.387839334709869      4.616589675098868
H       0.500908923300419     -3.150176198751623      4.484506638227769
Al      3.441610262753558     -4.948649106020730     -3.340662065896672
Al      2.744834787783290     -4.347569582275378     -6.360023668044442
Al      2.893035031023896     -7.158275946515669     -4.787138169013464
Al      2.651628296925793     -7.459239736694618     -1.587470380641425
Al     -0.390929505544146     -7.286156027620748     -4.862339885023009
Al     -0.416475145439752     -4.093655048710984     -5.646749646749632
Al     -0.491382284557757     -6.619675343318882     -1.653345413613986
Al     -2.651733157924014     -5.404970061135670     -3.713226667931559
H      -4.239777993357020     -5.265293711234747     -3.663847465654487
H      -1.921904433673827     -6.686261816473928     -4.513968211173063
H      -1.845905083589310     -5.893507512370873     -2.328998821695939
H      -1.782401230531393     -4.383425730477471     -4.715002953919377
H       0.365251498493307     -3.980904625179863     -4.259096880586345
H      -1.181642472243706     -4.273328218963442     -7.039273643378261
H       1.109982932905559     -4.005547535493443     -6.331027910083857
H       3.672298929328615     -3.754896242356012     -7.514552347768553
H      -0.225012343790940     -5.752096971325446     -5.526850993482950
H       2.808848572777010     -5.982922302794411     -6.004202054483171
H       1.259269934218817     -7.519084138740399     -4.996721223404450
H       3.348146988157214     -8.463096181906515     -5.616937810902384
H       2.747381055705709     -7.797174298177304     -3.224673752515703
H       1.024857177798676     -7.230421701764797     -1.287823718373663
H       3.539768360256416     -8.268952206286379     -0.538749652752695
H      -1.281315119335916     -7.930157922059322     -1.189519869359951
H      -0.943800020228716     -8.510866340027775     -5.743799609363507
H      -0.297333862741804     -7.270590291651555     -3.183450847572515
H       3.903169175295921     -3.664898515507629     -2.477334105798792
H       3.298292224727296     -4.097364747588229     -4.797391336823368
H       3.255494524087980     -5.947531807312995     -1.986015982209383
H       4.167163063318524     -6.230756860598884     -4.164870139238124
H       0.294437155704962     -5.364303258874374     -2.251306590739447
H       2.169864814900798     -5.870239100105224     -3.962110477000992
