64

Zr     -0.299050539131485      2.168261540284290      1.427153953654893
Zr      0.328531977143439     -2.158074026363783     -1.436217816606074
Zr      1.650327466536509     -1.255272457348113      1.590196639822270
Zr     -1.612794986137238      1.259920738415071     -1.594820343036340
Zr      1.785133987616164      0.928732467007465     -1.688260431142351
Zr     -1.752625082880184     -0.919939335039593      1.681439635811055
O      -1.652521571493793      0.856904603705208      0.510148078155847
O       1.684405710659263     -0.847921599184609     -0.514274427857844
O      -0.122552694310499     -1.824201038374395      0.619543551644313
O       0.155715456160037      1.827702834375933     -0.624116923286247
O      -0.021232028414083     -0.106295487585640     -1.939075752935492
O       0.055813044843821      0.113796689143146      1.929276887848900
O      -1.212437058540424      2.165798047526006      3.170713772143130
O      -1.687526870469933      3.502635969758102      0.970424582350330
O       1.366119220032917      2.047372249317813      2.653421549817282
O       0.952746424099216      3.639472713247329      0.779571312103248
O      -0.927274146042953     -3.627772771706692     -0.793148522220119
O      -1.336934417462473     -2.033104726445534     -2.665612561438140
O       1.711954121510113     -3.496513813934618     -0.981935440657937
O       1.242452148190807     -2.155246561763348     -3.179116730818473
O       0.982655977877719     -2.503059891383617      2.971155586454437
O       2.097629853047779     -0.109730550268498      3.216847558766398
O       2.694181035724053     -2.824132229170802      1.019154416686731
O       3.425364190851322     -0.297846669265706      1.116260964985860
O      -3.375898570305829      0.279279707492827     -1.127553953609866
O      -2.676542914114177      2.812642690348097     -1.020663865883301
O      -2.056826479682042      0.126943947281191     -3.231321144231869
O      -0.958667646325690      2.521708610465606     -2.968149456139604
O       1.363402704002874      2.348658039766778     -2.986475119017980
O       2.493066005717040      2.552837654858014     -0.617460967643813
O       2.284667444373235     -0.077479883998341     -3.314700136768625
O       3.669535837750111      0.411933084101448     -1.106838207426541
O      -3.639143640789076     -0.398435839959984      1.102990585428645
O      -2.246349638940092      0.084199155199347      3.310789735155583
O      -2.465338291106443     -2.537642261080006      0.603097384710512
O      -1.340520581109323     -2.346932905955685      2.973674774225094
C      -1.956806705276329      1.272124798017324      3.747006501841850
C      -2.541681904367082      3.605437938792833     -0.001828426005276
C       2.027832579932844      1.177835191666775      3.355958816693336
C       2.053429085874596      3.542163922829310      0.100530542896168
C      -2.029280193708429     -3.527048653804389     -0.116864096551586
C      -1.999314426524317     -1.161787409587720     -3.365419472937338
C       2.558669023560610     -3.610741238198897     -0.004452706968161
C       1.989903742135901     -1.263087099331048     -3.753837785406676
C      -0.205342513165505     -2.823042356061856      3.385594330609441
C       4.097600895521246      0.092258808386950      0.075118188492708
C      -4.058426682599888     -0.091177580553187     -0.085643838431441
C       0.228683991709684      2.831660401219607     -3.391891843668892
H      -2.592718907523956     -1.571465350180856     -4.178438665775712
H       3.234948781434350     -4.464142691797550     -0.049958920173283
H       2.607035534933163      1.588371128920617      4.178618531564745
H      -3.226773187568361      4.451801627014081      0.044867726839497
H       2.417814628038838     -1.540333960913935     -4.717048917207364
H       0.278360301986442      3.586856815692853     -4.176096420219386
H       2.701798489607598      4.413347710289252      0.139162830105501
H       5.172979255423339      0.163361938909172      0.215041363461279
H      -2.682099383708179     -4.394723361585374     -0.159855392015582
H      -5.133491912022628     -0.158053498456308     -0.231753872607958
H      -2.386233507188781      1.549902540786952      4.709386409326118
H      -0.255164791758088     -3.580436080390895      4.167660758904899
Al     -5.065046059021595      2.036786301450928     -3.467188952028164
H      -4.877519368662432      3.406355867465842     -2.667331873477283
H      -3.963254142416349      1.646373785269400     -4.555670424431534
H      -5.867024429130738      0.855401024308646     -2.753646961968321
