84

Zr      0.015675373631297      2.079867745668686      1.632113222073286
Zr      0.211464897359648     -2.014601676299573     -1.640345156557218
Zr      1.583660397687408     -1.504870306372512      1.430687495666797
Zr     -1.374326265320910      1.589406622236081     -1.429199884401752
Zr      1.936822913145054      0.949178090428297     -1.661721765101125
Zr     -1.732459008068207     -0.865248178765548      1.645146589291376
O      -1.589066544472571      1.056253079568169      0.667593117745674
O       1.802106996979668     -0.962483893081596     -0.663209906516925
O      -0.227362552721837     -1.585577912450949      0.339111184118664
O       0.438443161746145      1.654565491498734     -0.346751621592850
O       0.068799571249191      0.064577795773252     -1.952178526831432
O       0.135426575393174      0.005369437734726      1.945598857959908
O      -0.917247767780645      1.926688843721658      3.381091636991401
O      -1.203347343885604      3.608813362893327      1.389923794696957
O       1.671036570284455      1.697922467730061      2.781099433702091
O       1.366938915962230      3.466592454071203      0.917651188515071
O      -1.131871590936397     -3.410868690677400     -0.931769264781011
O      -1.445870325759826     -1.649771932151956     -2.788410186248095
O       1.462186235438020     -3.516172256750607     -1.371113712461397
O       1.172848994349468     -1.855041721100330     -3.373794560006649
O       0.740465085068610     -2.821671193706248      2.655478320877809
O       2.064728341228861     -0.578538626090292      3.220553167279044
O       2.439309183785914     -3.135045824108017      0.708901895896861
O       3.437167795570670     -0.719298493649751      1.182728204737194
O      -3.256328678237767      0.884202486691410     -1.143238989459312
O      -2.151928952636347      3.259825452656995     -0.708736950331676
O      -1.897743819891261      0.624003117660236     -3.182543892816863
O      -0.547000327603286      2.864693332691579     -2.708482565683858
O       1.426522330117472      1.828506432485939     -3.375215571955348
O       2.311065416729264      2.922768147580953     -1.166282638442946
O       2.849537955995423     -0.297487613782488     -2.916874701815365
O       3.583242680246181      0.835031777394603     -0.557195661817734
O      -3.399629337788028     -0.694082560099838      0.576528192377551
O      -2.602764715945529      0.375319933407387      2.940848249127550
O      -2.142150480572631     -2.822013983678471      1.108297307941482
O      -1.229275102929885     -1.788935665681513      3.338569370724213
C      -2.017766526279983      1.290158305930551      3.658930898529868
C      -1.975268363144608      3.922293360325408      0.394068074242239
C       2.127348988520179      0.694231454013899      3.471145097488324
C       2.120355006663589      3.664059192373061     -0.119637389572615
C      -1.920770452978088     -3.584224042093505      0.082889938116517
C      -1.947170403226616     -0.646261725751671     -3.445413910557512
C       2.268907585798940     -3.798882474481803     -0.393910815638534
C       2.295447303575531     -1.243125451406208     -3.619561872301737
C      -0.260445636311207     -2.647390459967579      3.469395265382142
C       4.050945676098867      0.134192465225386      0.426051202645949
C      -3.876970193424017      0.050632932910640     -0.369747784005073
C       0.450954185702824      2.676404445159447     -3.522720263399693
H      -2.498955828126822     -0.909942151583814     -4.343871539512895
H       2.873482697072141     -4.697904090889364     -0.512795199329772
H       2.650843091211168      0.959674928688540      4.386309103023093
H      -2.541922478991443      4.848113255681867      0.493250119800589
H       2.833167791856746     -1.559058364275589     -4.515692736958298
H       0.476998434205694      3.300914687819278     -4.418164752086325
H       2.664225924350425      4.602710907119129     -0.118290324917109
H       5.100583787701391      0.292445318255472      0.655607545763016
H      -2.469470987221011     -4.519936177264438      0.080223079289001
H      -4.943869303322368     -0.047402755323063     -0.548330197033385
H      -2.501810542777768      1.548043427498441      4.602588339556375
H      -0.295347399751942     -3.294190343371847      4.348653004141577
Al     -2.428225410999184      4.902413578480913      4.303194460471465
Al     -1.524079055714587      7.303772258904042      5.129567529253698
H      -0.999977317764738      7.770706296062393      6.650156210807481
H      -1.310468809434411      8.405439532553446      3.965411553355798
H      -2.846438142137346      6.271913361956768      5.157081137814449
H      -2.182088419588622      5.523517625679794      2.845926422328768
H      -0.839175578698685      4.497881065568177      4.646352389511788
H      -2.669917905147890      8.399537065479063      5.417130413221847
Al      0.265344136402189      6.771496676337969      7.075854639914692
H       0.498350928386704      5.521302579719016      5.987574072270742
H       1.450213766875186      7.627741188167885      6.415189349978482
H      -2.991741340555151      3.901480389574652      5.422135485794784
Al      0.818820687672396      4.303339572385328      4.875317600989328
H       0.606536479587566      5.560377185947567      3.748817413136666
H       0.583050182124442      2.957277430307832      5.731839883748985
H      -0.607534588081680      5.809339653400409      8.017139729171349
Al      1.237750806710064      6.500024388390141      2.503084218582015
H       1.580423211388904      7.791882215133077      3.388757920151307
H       0.415127747002396      5.897719312735695      1.264018108853067
Al      3.062873188781046      4.715675138936413      3.429263041175677
H       4.174278398570142      3.581229929529559      3.167725670635268
H       1.590364091873462      3.907148947703092      3.435162108087507
H       2.327975891172283      5.066988746539845      4.904657334391717
H       2.779168544464164      5.894296636221159      2.279590546767570
