76

Zr     -0.267041797324452      2.073913249661890      1.474188072521505
Zr      0.055696764471410     -2.067865099038475     -1.735219870012000
Zr      1.787518144923607     -1.330052433407565      1.127915191754669
Zr     -1.984288382410881      1.329560684278313     -1.400924409362724
Zr      1.358181906837023      1.036190052795178     -1.982327364427974
Zr     -1.557009265150183     -1.042482429816380      1.715226877468267
O      -1.691907191353836      0.815445455492077      0.620621326288696
O       1.486760436622511     -0.817477153196145     -0.887358303759667
O      -0.113382216320589     -2.020072944940248      0.417886739000330
O      -0.083343278273016      2.010855212835209     -0.677177287595384
O      -0.463051658926893     -0.018858215668539     -1.787696559753452
O       0.259919639200252      0.017987454392261      1.521279675680085
O      -1.642259175067193      2.149936233022345      2.912405293431502
O      -1.223619004421048      3.718663588537727      0.881960899834392
O       0.932525935383136      1.689878762944545      3.116635800249478
O       1.399279014034959      3.077520740628108      1.066001964446651
O      -1.612288709952316     -3.060117405050112     -1.326080410168195
O      -1.144722131104214     -1.680203564091441     -3.379348137751663
O       1.000142208869091     -3.720704574927727     -1.159664241903477
O       1.418543170317094     -2.150162416301499     -3.183102977757957
O       1.388013334103413     -2.636719327688931      2.550815752638381
O       2.312957073802322     -0.179097067577755      2.755002810638601
O       2.648869609391760     -2.900473906152861      0.271158129807720
O       3.464780690462279     -0.358671185554164      0.446700259112009
O      -3.638353362584279      0.305756999141611     -0.749291535832636
O      -2.880497556341682      2.869118807678944     -0.524189999611151
O      -2.487351046445746      0.223182560379961     -3.062742553224509
O      -1.572363971741622      2.672078942789519     -2.788331059084963
O       0.723613388410285      2.503548151319332     -3.144794344017944
O       2.313323326179191      2.543075379294662     -1.018212223481753
O       1.551310816078812      0.106916486190303     -3.729868258263912
O       3.323804055768595      0.422855567876215     -1.767866987172559
O      -3.525770411863223     -0.442350974044596      1.478087454059711
O      -1.769331608096018     -0.109023383887015      3.455688637875677
O      -2.506307908571908     -2.565520114257655      0.776016307262317
O      -0.912561636591031     -2.498111041898008      2.890127078953646
C      -1.987309554473439      1.155258024994408      3.676989351070192
C      -2.349563550853567      3.786134239229850      0.232015035255724
C       1.907674557803031      0.878895120310788      3.386572857593904
C       2.227111909033539      3.223203197849086      0.080895281583779
C      -2.438735322562972     -3.216657090311982     -0.341447818732490
C      -2.088191490128741     -0.843768188331185     -3.682251337362477
C       2.110311087101222     -3.810741211273861     -0.486968666337965
C       1.767754079113307     -1.158234769206459     -3.948956781821701
C       0.270144364219681     -2.986111871218284      3.110979801156526
C       3.944776423750386      0.027712163927213     -0.698261605531088
C      -4.133740218159480     -0.063900653541064      0.394892611891243
C      -0.454018636587380      3.008014038093833     -3.355861411682328
H      -2.618395369033448     -1.063150212777062     -4.602850595699580
H       2.649048653103121     -4.756648752420729     -0.565322349186681
H       2.461425447459350      1.112482632313903      4.289726578320686
H      -2.911482015409319      4.716721585753090      0.331840824466103
H       2.290674483162780     -1.413057072383876     -4.873340630912183
H      -0.509923607446868      3.806320716819795     -4.095713260972063
H       2.959378247720320      4.016549465001501      0.198682930812404
H       5.029352432396331      0.028098840590829     -0.768365346596098
H      -3.185363318993612     -3.993976354978947     -0.475575648273033
H      -5.219381289724611     -0.066288236620592      0.450425773309957
H      -2.505845991662010      1.408006248019737      4.604367071489194
H       0.331489328933943     -3.780782810532080      3.854291135029257
Al     -0.443456977854659     -3.589933312413208     -5.913287274325740
Al      1.662071431431701     -5.328237151449750     -4.033454365715819
H       0.543000861551766     -5.849909112230040     -2.909597117888899
H       2.243146576747175     -6.578209794353707     -4.836895392919613
H       0.760683148218469     -4.362053579698431     -5.053236693037045
H      -0.576959180801930     -4.235035934682164     -7.366522965643290
H      -1.804740829471682     -3.931698573747109     -5.009450843336313
H       2.849837588633024     -4.500970226966155     -3.359789019077399
Al     -0.823935216114696     -6.242839560637968     -2.034825782478622
H      -2.017663855726989     -5.410057167408229     -2.853363403543078
H      -1.098705876382955     -7.813750122257408     -2.082721411034016
H      -0.194860861417025     -2.016750583489658     -6.018146868881893
Al     -2.936176425281088     -4.541544096558751     -3.944413589574151
H      -3.938076199553946     -5.518645652845477     -4.710708684005781
H      -3.749277211826532     -3.364464414503541     -3.235631293950704
H      -0.708628357654857     -5.731612241457467     -0.526730918304794
