88

Zr     -0.251421738883913      1.816003301498681      1.875301693677759
Zr      0.896259347168995     -1.723508946452219     -1.587276254481566
Zr      2.321240500698857     -1.002557661049390      1.427324750951419
Zr     -1.714513963315641      1.279604872877979     -1.097038594863993
Zr      1.658108955024039      1.537706258464237     -1.637264004691142
Zr     -1.048290022475608     -1.505451689046792      1.730455333585501
O      -1.169654710227532      0.317086322266463      0.669375234981968
O       1.774431108376930     -0.157218939474400     -0.430038833691473
O       0.661085961473309     -1.917847879359524      0.544406971536346
O       0.064974731544145      2.068771972879245     -0.278668496505966
O       0.005816386873293      0.255608257462606     -1.904743027067655
O       0.520745141118634     -0.173643107626868      2.156850702132998
O      -1.661465718040714      1.384002721860249      3.204846135780737
O      -1.385586375759187      3.396318795087968      1.554030018226438
O       0.989885608490959      1.730756309516795      3.518388795226949
O       1.262968276885363      3.163102489055232      1.555546895622501
O       0.160782195154414     -3.586373997301068     -1.078484036327036
O      -0.908157881912198     -1.927164051366235     -2.537010708104787
O       2.669919750698571     -2.602662215860740     -1.443617175002484
O       1.522387978026270     -1.350151212768057     -3.423482529572404
O       1.984723952168648     -2.107508696970549      3.050892913684614
O       2.816775202704580      0.473148324017996      2.726925386014901
O       3.183579347980863     -2.690532375072936      0.824286791952857
O       4.001632744474023     -0.263305402065397      0.504308633810656
O      -3.419429049514200      0.714905323240606     -0.066435246117063
O      -2.356703892309377      3.068367247734976     -0.537943965643410
O      -2.446771887963482     -0.195268699470498     -2.214969206466170
O      -1.421637268546523      2.240418359580421     -2.815778934750744
O       0.757219663437277      3.039636162977832     -2.585747189658148
O       2.432596097007041      2.934768661481804     -0.456240373191708
O       1.969943431461343      0.934793889149159     -3.499885632373558
O       3.630002640182816      0.953156108378543     -1.473298350951596
O      -3.022002969380363     -1.073047469264740      1.407969172666633
O      -1.550260328235604     -0.913819607787619      3.563317597064980
O      -1.541135346165550     -3.010973043130420      0.443682530409750
O      -0.159636435203506     -2.974570204013427      2.728665973649822
C      -1.838942649788422      0.305369101701021      3.912180164310714
C      -2.139579384386884      3.738425750396788      0.553197150467174
C       2.226789177008610      1.331706719209405      3.507279437097730
C       2.161081027457504      3.489887566140187      0.680981281953847
C      -0.879792613225624     -3.819438236461187     -0.334540261688429
C      -2.035445753018231     -1.314871628011416     -2.717821062583715
C       3.302431640135968     -3.078916011661345     -0.410787412692516
C       1.894444342558893     -0.255085221222508     -4.014789367547253
C       1.020826696815720     -2.953893260925732      3.275253215585080
C       4.355984577538365      0.384131738151143     -0.562495439313640
C      -3.759890946065019     -0.237982821081939      0.744502293916463
C      -0.429424942544106      3.026200698278387     -3.121924241605479
H      -2.738229079307219     -1.815807033930549     -3.376234236732279
H       4.020326648871392     -3.878456364930329     -0.602648001567088
H       2.866843434602660      1.798078722841509      4.253048814719255
H      -2.648544378901839      4.698705078713884      0.639196841229007
H       2.171872738649570     -0.344616962457742     -5.065208590604326
H      -0.612962526986919      3.752356074326056     -3.916508388125263
H       2.778738130237154      4.343465787875383      0.942617791423519
H       5.426571175151570      0.451871694347610     -0.724242427672973
H      -1.261600934041347     -4.837519306460137     -0.379832685244626
H      -4.827644089678212     -0.343039268602086      0.904780405909501
H      -2.291049136484859      0.435429895177436      4.897445749907375
H       1.219626834428562     -3.734516252387231      4.011664342131088
Al      6.890394634971005     -1.617323567688523      1.453778987918711
Al      5.932115161266350      1.390522775021428      2.528008717437201
Al      5.004560171707236     -3.275347895393641      3.521923144318375
Al      4.995514245224716     -0.460402630945898      5.019466618462809
Al      3.954398469760480     -3.308706458906530      6.034703116318865
Al      2.116382634729071     -1.130772380417762      6.089684205725504
Al      3.387590869277401      0.792464842359960      7.531182456986103
H       8.483912207974919     -1.692430236193798      1.487421540413127
H       6.353597320096005     -1.961371509709606     -0.009700703407276
H       7.163528236368795      2.336124209598045      2.895080770691607
H       4.816271143326283      2.184232203365188      1.707139416478325
H       6.420777452841222     -0.064960172119678      1.863474710780479
H       6.247191769202831     -2.735597582212332      2.515790505372281
H       4.490293613324018     -4.461686369367679      2.559239431839150
H       5.395894375510566     -3.432398763942285      5.154428719030265
H       2.390966504780327     -2.763776948499054      6.305671077656079
H       4.772501598719384     -1.825037500704811      5.977508536917605
H       3.568819336552972     -3.293862250732201      4.396098869754341
H       4.072656587978100     -3.977013846358424      7.497281585492344
H       2.090144819408966     -0.257141195748937      7.506368823461119
H       4.219007076658438     -0.039959454600329      8.621085549922217
H       2.716954000988808      2.068023679542752      6.826672124212939
H       4.523351047145627      0.483220096887157      6.329198183298674
H       5.226360117689773      0.778371887488824      3.912142570867119
H       4.986066318692048     -1.595671259716438      3.777894824798596
H       6.582644480946134     -0.486782380552066      5.264901586665398
H       3.315883793626242     -0.565703398677712      5.048115368393586
H       0.734161648157461     -0.899505551671606      5.302159045462296
