76

Zr     -0.328839618585393      2.309651731754008      1.329611264490066
Zr      0.302332168677657     -2.078101192205137     -1.441592644448806
Zr      1.974906683148411     -0.924009307955101      1.323017902621288
Zr     -1.937813067625243      1.190777666363716     -1.482382442985418
Zr      1.422074709406033      1.049092297142199     -1.997890605649869
Zr     -1.411750320536544     -0.841165237408835      1.890932289202893
O      -1.603040110085940      0.854946748681166      0.569982592414541
O       1.599253007413063     -0.624833396442919     -0.687487928087037
O       0.119249552224606     -1.830516026638495      0.709303772623537
O      -0.093572096190509      2.068144111481869     -0.807913933250993
O      -0.342410428560686     -0.081535467898143     -1.742306398920688
O       0.325666245374073      0.306597858286694      1.701649195890230
O      -1.701639436253910      2.409223266716189      2.768437000671465
O      -1.421080002559811      3.802503158183963      0.608867580818799
O       0.914469344843195      2.254302123381114      2.980159951375755
O       1.256891836511074      3.414599731278677      0.822941918735423
O      -1.315835753503098     -3.120822695080116     -0.936743698890585
O      -0.910044862368859     -1.958713970445000     -3.128278904547644
O       1.309851467585990     -3.625232019628323     -0.735925781895524
O       1.681766946650480     -2.168770265804103     -2.882295741621356
O       1.650888326999315     -1.745568903467076      3.085223471793656
O       2.575341080492745      0.657247333484960      2.511018229882636
O       2.731052931366533     -2.687155235873052      0.858183028695946
O       3.709119638330278     -0.265160669505543      0.382648438202578
O      -3.550438118579909      0.170100146000441     -0.705975445294235
O      -2.942903440066707      2.752231064132222     -0.809192121428859
O      -2.391428797544921     -0.137090072042603     -2.992126861577724
O      -1.540420109826051      2.368377371871315     -3.021561362248093
O       0.781808742566370      2.465323065416686     -3.212126354516162
O       2.368522530899778      2.516078140201593     -1.026437702694820
O       1.555136777377208      0.008520647455092     -3.692181354656102
O       3.401592127035528      0.429477607061723     -1.845855718782928
O      -3.397783111407307     -0.348966351622137      1.583187157276265
O      -1.697625473002127      0.217178002235776      3.549422529467710
O      -2.260689599716286     -2.488908946793774      1.104890599760074
O      -0.645726918079209     -2.129113577327637      3.190141947010798
C      -1.968709205127003      1.486535981431788      3.646089944816674
C      -2.521923931671314      3.744911386397657     -0.081410082619379
C       2.034651143029963      1.631070461088028      3.180031350946974
C       2.232304306110366      3.324755209394373     -0.024278472297741
C      -2.125551485294747     -3.250114564980888      0.065891818226876
C      -1.923414345590211     -1.237272922894089     -3.494862373369844
C       2.308437739335195     -3.650590587568992      0.095174604809002
C       1.876625861514584     -1.250737799123917     -3.785751696141481
C       0.576839382148963     -2.252251615374145      3.613328431698378
C       4.098672726201635      0.099891797253534     -0.801788746863861
C      -4.024525744671140     -0.109416836607139      0.471845719294390
C      -0.429892550085109      2.799171885189063     -3.540675504770281
H      -2.454288209428450     -1.602774831252887     -4.367473931304137
H       2.854521912030670     -4.592129362651466      0.162361699505475
H       2.606835149396241      1.975928688850960      4.036368580120104
H      -3.158591470497301      4.630791198471169     -0.052770236183407
H       2.355167667991549     -1.569158578571390     -4.715247251425948
H      -0.525974984598050      3.531920966990667     -4.342208287710991
H       3.054831185350912      4.017396799886940      0.127339357339736
H       5.174986033452518      0.123890146669425     -0.942487293303317
H      -2.795008637802147     -4.104455704225042      0.020639559074711
H      -5.108229867042792     -0.162272217076855      0.533545641198394
H      -2.469426789701798      1.811760530819478      4.560391001433019
H       0.717502070995434     -2.849801925196676      4.514744239756982
Al      3.293661401545467      6.912905701879774     -0.250486269776562
Al      2.957709715274057      5.604718681966176      2.784365579224693
H       1.296573651321708      5.770540859860877      2.771797227324619
H       3.484449089122309      4.097968021162263      2.775031735828545
H       3.291601143512966      6.282436996821229      1.295444319389131
H       4.337323240548129      6.080016531752642     -1.125009779606144
H       1.755257565332238      6.598613668396556     -0.816284065895743
H       3.620130585118429      6.443709519449498      3.969088389683136
Al     -0.256413514775722      6.214700217696723      2.348068769119733
H      -0.228235004259997      6.169025052243137      0.678088186570099
H      -1.312644150972933      5.189399593886301      2.964816413733053
H       3.624250769426316      8.474212285834030     -0.243529964760872
Al      0.156332704941610      6.138170046233753     -0.947779486396181
H       0.049330818036746      4.655954721284191     -1.528450087229386
H      -0.765722895692782      7.140227784623896     -1.778922772548715
H      -0.550534482183033      7.705160515820570      2.835051480201964
