68

Zr     -0.329996658800828      2.153968405482507      1.425832983757833
Zr      0.334953444219516     -2.182256497101696     -1.420214380818000
Zr      1.672078850503046     -1.239758779914653      1.588016329097338
Zr     -1.659496388186292      1.198619247118590     -1.570164143135680
Zr      1.740640517389012      0.926733902180923     -1.705583876145515
Zr     -1.734955158104814     -0.955147831927005      1.714255913750807
O      -1.672840933006138      0.814104723969639      0.533056005570555
O       1.680467927010288     -0.846270343355029     -0.520318010609029
O      -0.101758986902088     -1.839972774506335      0.638215594798420
O       0.109764662434930      1.804496401642264     -0.627641501509701
O      -0.051098802345082     -0.139431264678374     -1.931623094692910
O       0.061193678850793      0.107044768188441      1.937110719122733
O      -1.223864809217589      2.148348370900754      3.178544240863852
O      -1.745453610624491      3.462643694103095      0.973729449334894
O       1.352034833742132      2.064888736944938      2.629812457321751
O       0.888977193737188      3.641124135515384      0.753552244994661
O      -0.896760962478611     -3.662205400890287     -0.756084665661488
O      -1.341362672510596     -2.092169866858399     -2.639095437240055
O       1.740325240121159     -3.498323487343099     -0.968938784131985
O       1.234524995965633     -2.176916807283532     -3.170626938853940
O       1.036605091295834     -2.487049056770680      2.984679510282140
O       2.120328858715523     -0.077171009073471      3.202769217281092
O       2.731873766308172     -2.797904396322694      1.017822974308778
O       3.427937698774290     -0.259464076282153      1.090125166217415
O      -3.412336516232470      0.206019010246958     -1.077923710602658
O      -2.743430221228712      2.740807246835971     -1.001619315026227
O      -2.109617905622631      0.053559685197245     -3.197354848089998
O      -1.044962715509823      2.458672667851784     -2.962554785985542
O       1.278837125266221      2.327391775980071     -3.011772339980193
O       2.430903361885188      2.574071599035321     -0.657305985550300
O       2.242003302414397     -0.083829768353455     -3.328376022128499
O       3.637674410048516      0.447229074133409     -1.137483613372159
O      -3.636266119641277     -0.459857693694685      1.160916741539682
O      -2.220649965984587      0.050573462256229      3.344446227357507
O      -2.436659507692938     -2.581632052682531      0.645814862026213
O      -1.288777481658577     -2.372027532719590      3.005868299722100
C      -1.945830128981303      1.245972918387019      3.769661532135986
C      -2.613331406185499      3.541894244764360      0.011201184092097
C       2.033034707766615      1.210376405610318      3.332534003103071
C       1.981762581254397      3.559666457259046      0.059896626161111
C      -1.995471628674290     -3.569447126771116     -0.073269283506025
C      -2.019666968979512     -1.232458765682933     -3.338121136851364
C       2.597708469014904     -3.593776053383121      0.001206169660986
C       1.963695282379518     -1.277211216207724     -3.756874298619527
C      -0.142021953042958     -2.826080395167608      3.410552758837069
C       4.082903701547022      0.137999164522539      0.040830733739908
C      -4.076582359910534     -0.151511642278218     -0.019750635736041
C       0.129812990680856      2.781430639954228     -3.410459008195136
H      -2.596483565120157     -1.651519104325831     -4.158319172050469
H       3.285257593830529     -4.438137293593645     -0.044457654656497
H       2.616011066273658      1.636313176563534      4.144690435048511
H      -3.313907099887043      4.375322159478690      0.060588294274801
H       2.389611394262842     -1.554697405691827     -4.720910564924877
H       0.154370725329630      3.522585126558285     -4.209118525560301
H       2.614844050575463      4.442511849754860      0.084869097297155
H       5.158232334974125      0.227726449198673      0.170018944209747
H      -2.641720750502706     -4.442363425710044     -0.110969754028388
H      -5.155160095015810     -0.206714334253474     -0.142738483414941
H      -2.367983714103377      1.522763929804519      4.735568231305512
H      -0.172010601596157     -3.580379274854711      4.196637449252686
Al     -4.204633561304812      3.182708273247520     -4.059891456317231
Al     -5.442346548912979      0.889111461025179     -3.697394941816802
H      -4.018082960169818      1.686872943206453     -3.337092828846176
H      -6.177291698458213      1.146822348626335     -2.294768354229338
H      -5.620803732933421      2.377654572400309     -4.444302882209219
H      -3.299851610786904      2.856777563409318     -5.344594376053279
H      -4.683071260527733      3.987717651581490     -2.756457872109646
H      -4.854719655209711     -0.002121780437344     -4.895396002791751
