92

Zr     -0.588745419986035      2.090470736855865      1.410880164221389
Zr      0.318533423904999     -2.247381773366836     -1.371853323274473
Zr      1.485696140789807     -1.251605360191632      1.684177352174349
Zr     -1.748397933362760      1.106952971456898     -1.658949615537288
Zr      1.662496414672600      0.895690012761982     -1.607132889372700
Zr     -1.922553539141565     -1.047200926909719      1.625194706994748
O      -1.863343192618324      0.728935916858101      0.447972959306198
O       1.598354155376905     -0.877274914851164     -0.424632372654666
O      -0.220829078793516     -1.901017422178677      0.647450630702845
O      -0.041841435623247      1.755186995338808     -0.622428467167403
O      -0.094414385216981     -0.211257496631105     -1.898463919827107
O      -0.173058635011850      0.059239395655441      1.926413567084527
O      -1.586413393135066      2.077586681246423      3.107945662406344
O      -1.994003249629088      3.377310902075639      0.876616652777869
O       1.013589809113919      2.029502598365431      2.731241692585787
O       0.647696153766022      3.590341335305653      0.815790804181258
O      -0.896455041907247     -3.764287377931108     -0.753993264970694
O      -1.307690724763320     -2.194428665715159     -2.653191807207006
O       1.739086824172689     -3.521262671014425     -0.841152085561405
O       1.291803687859934     -2.231075964684647     -3.079916765929323
O       0.836461055962552     -2.565347785824497      3.006898400352607
O       1.779141399863717     -0.103425982889387      3.344536061252114
O       2.662523081384784     -2.741895670095698      1.149830100830921
O       3.204892247787817     -0.172367303795787      1.295585029540212
O      -3.492424656828124      0.075646289210758     -1.266237856696416
O      -2.884836048239454      2.630891636989496     -1.140980329309089
O      -2.064907914194061     -0.069210215306432     -3.298825754314326
O      -1.077656567923234      2.377306937858900     -3.016502638681139
O       1.247339767548454      2.277970517378926     -2.946302264087237
O       2.265909809511688      2.563141019834158     -0.535984771103088
O       2.265932293855104     -0.119054936804323     -3.192057101287189
O       3.542629955430176      0.469362533018926     -0.936376289733729
O      -3.798532390211161     -0.633071087040781      0.948176662222542
O      -2.555984371615720     -0.035056098875901      3.197326538582041
O      -2.518246716013686     -2.735208636445838      0.591205104627969
O      -1.485654631745841     -2.411502777676905      2.972769463986015
C      -2.331925489505003      1.162177688466210      3.646552877373161
C      -2.812824651036021      3.440394927717576     -0.128852792211563
C       1.654126586972088      1.180872657000692      3.478275154748317
C       1.772959090750117      3.532344632754195      0.174168172999996
C      -2.016930607207881     -3.711169685543410     -0.103664331472987
C      -1.964376200638525     -1.358574997198573     -3.400302784791140
C       2.578805458313927     -3.563599557505363      0.148285740205050
C       2.031075811294179     -1.317845826691352     -3.631664406080493
C      -0.357258428427689     -2.891994675141200      3.398053801186657
C       3.919187018801053      0.202291077703481      0.276278947197682
C      -4.192673907117214     -0.325652953241785     -0.248535020775301
C       0.114348485258953      2.721581377046292     -3.398550997570695
H      -2.508549401876010     -1.803761044562732     -4.229041876898833
H       3.298526803604750     -4.381943855141028      0.134439421755045
H       2.160743102303340      1.609298647507752      4.338980272688501
H      -3.522679444923226      4.267270543329916     -0.120977409904724
H       2.508103215789135     -1.587619663955594     -4.573793181794056
H       0.169987649237458      3.470894343193674     -4.188016009741377
H       2.392730631359337      4.422335526951709      0.241105415000908
H       4.983390322815582      0.314422581965892      0.468266459620908
H      -2.621517925147846     -4.613114716348624     -0.145522203915525
H      -5.260423881255434     -0.421711456456689     -0.426447537760789
H      -2.824807471457043      1.426946401217394      4.581864103412083
H      -0.417861633374999     -3.655470313900188      4.173574147633690
Al     -6.319400188473496     -5.343071034291062      3.620594580106649
Al     -4.770061589401656     -5.981442770646814      6.290805970452900
Al     -3.688658635149276     -4.777824116092253      3.487788913014399
Al     -5.611170888026805     -3.262821023357992      1.379801488691325
Al     -3.495438041357446     -2.068758772837155      5.335896073810155
Al     -5.735354967698768     -3.112110823317586      7.508763900221951
Al     -5.928377137101491     -0.804852951497735      3.509714879019072
Al     -5.514525506147280     -0.008257196799449      6.608978273435599
H      -5.253566979147212      1.372405945430525      7.364566926766248
H      -4.068968622358392     -0.708460410197207      6.132064923301947
H      -5.989020201614252     -0.043741798031158      5.003581060319329
H      -5.915297758520992     -1.446021827067246      7.371983773899231
H      -6.788445760517337     -3.288751951448661      6.317493650079709
H      -4.732532766659271     -2.964720798173690      8.746629462338705
H      -5.268689996954691     -4.700396090594357      7.240807939569274
H      -4.393443939793853     -7.379306628131793      6.960553331261511
H      -4.448308367600725     -2.839870163732812      6.477162988039241
H      -3.785614783112379     -5.430987124839921      5.051132451222954
H      -3.254666486201629     -3.466993901358133      4.454377724617673
H      -2.297163494910736     -5.219832932195974      2.803599494188822
H      -4.271596935388521     -3.865249273436925      2.184031878317410
H      -5.793005683319227     -1.802807183499866      2.170508719205270
H      -5.487078847462596     -3.319665340469687     -0.209850285555670
H      -5.132767082802332      0.413848111017598      2.845431595558111
H      -1.977967757937793     -1.595080618955207      5.584840051057067
H      -4.540894974166043     -1.491472284699149      4.150638769593954
H      -7.875693829283057     -5.764421885948849      3.668199471445392
H      -5.985449902788985     -6.017059067564450      5.137396678791536
H      -6.506586993823818     -4.391694744608940      2.233384276555373
H      -4.846586316067883     -5.930223686083792      3.038389561668731
H      -6.884469576675158     -1.932514392075941      4.120225517237570
H      -5.168756958108054     -4.189168703438872      4.062852354420057
