84

Zr     -0.267636533101566      2.225810458931629      1.540509592983666
Zr      0.552725037435520     -2.089037421803636     -1.179160953327564
Zr      1.966737676116170     -1.033508035177699      1.691686357828101
Zr     -1.687911370168827      1.161145900637479     -1.334987929272587
Zr      1.731135760396377      1.084485038804746     -1.647750692044800
Zr     -1.436947063701291     -0.930065389682201      2.037062900848764
O      -1.380936001654631      0.640698056771355      0.694827541423557
O       1.681391066173370     -0.522770688404245     -0.341148270222003
O       0.162527879334507     -1.705447443765459      0.909077534124525
O       0.117539817207651      1.841694170400617     -0.544901628929950
O      -0.031248610471701     -0.118547077316298     -1.893832229420128
O       0.332893414596681      0.261865398067633      2.254537764784367
O      -1.049579269265128      2.216214934528882      3.356636012329302
O      -1.868221161365688      3.338032211615771      1.150232320472344
O       1.474427481685080      2.460462135038222      2.534423605227841
O       0.695181937830502      3.827356544594331      0.643063082367092
O      -0.483603897256868     -3.653783653518289     -0.305934308859843
O      -1.141701780853093     -2.307512949378623     -2.263417336458739
O       2.105217600497657     -3.258534811739490     -0.757226297978231
O       1.408779595613117     -2.066960323579609     -2.960729828992010
O       1.528059232793707     -1.620471509592978      3.545024457325287
O       2.827086722025605      0.555667955452522      2.507774724032153
O       2.424876116626432     -2.964652440004017      1.527842462439913
O       3.798714651574625     -0.897933704047729      0.727216989282664
O      -3.511516588345868      0.996214197162131     -0.359896654330704
O      -2.150132269996558      3.091754804856220     -1.145916714464221
O      -2.524584855807518     -0.424100334702630     -2.194390368863666
O      -1.247477193426267      1.745116060228843     -3.183960893677871
O       1.002935508488487      2.334959170328438     -3.007275557581070
O       2.320624812846750      2.836278155576163     -0.738954781902990
O       2.308511334377903      0.064573984638381     -3.231385929084035
O       3.659124370742843      0.642630412619948     -1.044189521676783
O      -3.368229994764308     -0.433899654433397      1.501617723925410
O      -1.942209682882439      0.084685046359715      3.653204514215365
O      -2.078641978515302     -2.632916133079239      1.088010130955987
O      -0.716764317598978     -2.226514767560749      3.351981602132379
C      -1.705483347322877      1.309118659764506      4.014892904510350
C      -2.308837243175317      3.716607958757392     -0.015240163744978
C       2.553338247176774      1.790037586735373      2.786734630105764
C       1.744217869381952      3.825296597908070     -0.122144413188972
C      -1.536785305960093     -3.629381006202976      0.452790799366193
C      -2.198576422334801     -1.621737907952213     -2.564313895450270
C       2.561572798397250     -3.613920231724668      0.408902412286562
C       2.076632995175653     -1.157541766890277     -3.603178494439702
C       0.450572932893049     -2.244356984259469      3.926781376798794
C       4.275463809120057     -0.123177375001096     -0.196927007707810
C      -3.985253853817523      0.283475706947900      0.614467797174089
C      -0.160964973737402      2.335290397702943     -3.589443004522288
H      -2.915619941231183     -2.125722765103137     -3.206004119135988
H       3.122935720382921     -4.549603779010646      0.451722744904487
H       3.333825854303800      2.336704138148404      3.307814237870183
H      -2.875566514662815      4.649949035991535     -0.046492616860918
H       2.490292577195177     -1.455218351878439     -4.566563079249303
H      -0.233962303755212      2.893494437625045     -4.524434977346276
H       2.216424074399744      4.794291900542508     -0.260388689816606
H       5.356802099234631     -0.126821422369434     -0.286133027043095
H      -2.047492113043582     -4.582197152297664      0.564438679295212
H      -5.065428366713550      0.302568142394714      0.712750743669346
H      -2.093713723982672      1.606901146817674      4.988804135457873
H       0.532581136219218     -2.854194411606843      4.828111298163552
Al      4.385339037079785     -1.208207430968279      8.263451790049986
Al      1.906039196123708     -1.670598731542191      7.311139961694332
H       0.769155687037802     -0.601417688505223      6.691753810052213
H       1.781646016176849     -3.224536705282989      6.888745822336310
H       2.788002313106106     -1.387449869869657      8.709219631002053
H       4.847459317399487     -2.733652455268446      8.081627795656573
H       4.535815653010736     -0.813280642288105      6.643010156121827
H       0.704997063550161     -2.116092716313877      8.285291644314402
Al      1.609275792487245      0.663106326906691      6.002712035219596
H       3.040311551831573      0.066897195150571      5.364970239768849
H       0.820111572352383      0.580959246161403      4.612756111984115
H       4.518372288948765      0.324968667904107      8.712976842225393
Al      4.578271785661038     -0.509847185350443      4.989606973882425
H       3.965074809629587     -2.096137010460102      5.036063825116097
H       4.991962870039954      1.048022044528971      4.996715362177619
H       2.218940422984791      1.491316266434439      7.233763317900624
Al      4.103648690091884     -3.684947060595599      4.487390185832973
H       2.697921711179605     -4.013521576487112      3.790650031000137
H       5.082393743755298     -4.289229332994269      5.604328931748316
Al      5.757070467248289     -2.043329186210916      3.125650020478826
H       6.637552965844197     -1.534732497087191      1.878562792609421
H       5.949153513635183     -1.452188906280997      4.692124423961165
H       4.433745411500426     -1.044322049428441      3.397518959699324
H       5.127483446152961     -3.590499129265002      3.168458221534518
