84

Zr     -0.352355285823030      1.831309817120822      1.864580497687152
Zr      0.349435093143916     -2.047855663779142     -1.522497216169907
Zr      1.657044188082738     -1.556004818127258      1.581828693051505
Zr     -1.635949390195552      1.330282825985438     -1.275503493033059
Zr      1.761257312326861      1.072944141241669     -1.356078812747468
Zr     -1.769899958191287     -1.267781743822604      1.698112357981152
O      -1.654651396377007      0.620546715170222      0.741945338192847
O       1.652692678711580     -0.829296059277452     -0.402257126851285
O      -0.123635437941477     -2.010798815765383      0.557272018379469
O       0.122961788982116      1.785111106010496     -0.214693644929278
O      -0.029229297133531      0.037494545262321     -1.756783938783007
O       0.033343967119420     -0.258166638117454      2.113512875723034
O      -1.340522214423281      1.534042865677489      3.551945374674194
O      -1.800309975330145      3.159040709188506      1.571613609884774
O       1.328581563134077      1.611406553914023      3.026067692225861
O       0.838089227059460      3.428184010601665      1.401241586704640
O      -1.387793418717553     -3.116553190463590     -1.225462478256175
O      -0.749064744205526     -1.747106551771289     -3.215293765790100
O       1.186899870005047     -3.752974772315607     -0.961992027260113
O       1.872196036852926     -1.990523092738320     -2.793024873406446
O       0.991497862802610     -2.967369993023954      2.793794037663731
O       2.139242130963937     -0.575149912105246      3.289064739987227
O       2.621085667704242     -3.074231808017368      0.745318099239926
O       3.468658887137054     -0.605167734223430      1.192136260729927
O      -3.558940530697731      0.985550850375566     -0.719538017218520
O      -2.073086006626113      3.189245479432954     -0.742694712366106
O      -2.305240330376296     -0.088871435759370     -2.619332313717989
O      -0.993216603016239      2.217440666560412     -2.930807125630089
O       1.250369737467119      2.641589069681590     -2.454421899034799
O       2.442809528915964      2.528172796910517     -0.061231522616088
O       2.228826363203664      0.289536472523976     -3.120447502183490
O       3.644613453270773      0.473586401671905     -0.886797759509271
O      -3.494688802235618     -0.964570444797952      0.587957132672078
O      -2.788489687150174     -0.215999733988373      3.030155226303439
O      -2.253901814577126     -3.103181446092748      0.956352726269804
O      -1.211877250037948     -2.359039344160748      3.248070712728104
C      -2.419273389205634      0.824322917285699      3.719254006869345
C      -2.220608838295834      3.675478131189930      0.454388669242041
C       2.133891704575722      0.706471593510928      3.496310161559696
C       1.943026880757123      3.439781082330310      0.720025578497458
C      -2.115463031124891     -3.566301988369401     -0.247419173218605
C      -1.816732557066678     -1.026556219831227     -3.375813100889108
C       2.188609001491583     -3.916899356505875     -0.147340280747614
C       2.356397994166838     -0.966686308490785     -3.433081649573500
C      -0.144700315451296     -3.083078858375599      3.414027136483976
C       4.107924974273979     -0.065134072204349      0.198367791129266
C      -4.077668243118613     -0.030827256626826     -0.102400183462543
C       0.147271848296032      2.815295205515718     -3.124086649859809
H      -2.391155596195927     -1.245215709068814     -4.272467589854339
H       2.725142481073243     -4.864852759160138     -0.221051595389004
H       2.912804154770166      1.077179810906746      4.158157393417000
H      -2.759627141809322      4.621408412299861      0.530084803129888
H       2.934248905273690     -1.186148457720223     -4.332747616812556
H       0.182749416016025      3.542022049013686     -3.938342402992939
H       2.542320407992349      4.340682003808428      0.826119801888062
H       5.190547148258687     -0.063799384758258      0.289714933601478
H      -2.697773130353736     -4.456153923903286     -0.472146588546538
H      -5.158578716589457     -0.115344352579781     -0.176076222596414
H      -3.081433270519445      1.129124331269163      4.532085602523185
H      -0.204557745823857     -3.868586643442470      4.168697241638995
Al      2.597188057908938     -1.951298063018170      6.347989393938626
Al      2.612311912052182      0.627794635134182      7.178635150937075
H       2.166917044585662      2.006998390231236      6.336143325899743
H       3.332918611601284      0.883661809279921      8.602820597408002
H       3.357776451007943     -0.480375285189678      6.164419557598752
H       2.262191697054065     -2.195544440278670      7.898567295939541
H       1.021305631753592     -1.525106712475474      5.998560843467263
H       4.029720628881416      1.329912746317693      6.856145212007219
Al      0.538412240455625      2.268577376800768      6.566172188166298
H      -0.090721965292170      0.777211273381813      6.156647387605040
H       0.208220299752437      2.061184858614540      8.123007140531712
H       2.846540291864431     -2.480938692667999      4.854479422267492
Al     -0.506615162096696     -0.835185337456730      5.958387496403319
H      -0.736376170007770     -1.063751608889466      7.622408924103454
H      -0.033091002900255     -0.452894291772852      4.469295451918104
H       0.276003798283181      2.886528914889526      5.109980411296092
Al     -1.781906976571521     -1.666201594760894      8.796953151970019
H      -2.362041638797830     -0.252445372012588      9.284510490944111
H      -0.981267200928868     -3.026072503908694      9.084404931590903
Al     -2.845618033492228     -2.035895282337421      6.323254018985280
H      -3.913989055648130     -2.393162783156272      5.173770125512193
H      -1.219053050327908     -2.364085022673288      6.035486701416361
H      -2.146998487643370     -0.510690183715133      6.185302610731617
H      -3.100379988971786     -2.263850702604057      7.958392596068154
