88

Zr     -0.258726693420139      2.788474669855307      0.961656051329174
Zr      0.459274912511291     -1.858254479272471     -1.363560332598151
Zr      2.105331457636537     -0.378763822358750      1.262816196326932
Zr     -1.898995359836957      1.347383020345669     -1.670189293206189
Zr      1.427509671050158      1.285511910357092     -2.259914359098184
Zr     -1.223483847183068     -0.351058110913816      1.846762441111840
O      -1.694134509357340      1.272042799547212      0.479149853180306
O       1.904880509947098     -0.340438838843766     -0.896217324159564
O       0.314234177955646     -1.239824198384366      0.631008565412747
O      -0.104996449734346      2.200056600455063     -1.042756504599879
O      -0.221274790934755      0.048775313482837     -1.819896819546318
O       0.424205611944411      0.899594868524348      1.433710041737513
O      -1.435713722610695      2.985156802430409      2.534637509364896
O      -1.507236404362409      4.125756734392334      0.208533783211787
O       1.205197674520218      2.948356034346502      2.408788570330546
O       1.180512572508393      3.933726365962921      0.042273674217881
O      -0.963429314583068     -3.009129119064303     -0.423635847761223
O      -1.014951277863711     -1.991322735900028     -2.806558740896830
O       1.695506451287434     -3.188666180403330     -0.561950299943695
O       1.612584645891050     -2.082497940828619     -2.944829256873512
O       1.776115386981902     -1.580213434718285      2.822244747368955
O       2.394983063169289      0.960728724484748      2.812711871169116
O       3.213291802664807     -1.915402714488139      0.670061574490308
O       3.603080987677784      0.762171303355727      0.624552895141380
O      -3.404979749487925      0.205593799320049     -1.052792127803004
O      -3.018705100562121      2.869298334027117     -1.046701397221112
O      -2.167998162171247      0.014595244204758     -3.229974799915894
O      -1.580103106050615      2.579863178290507     -3.202167242506479
O       0.466294370398602      1.753173365982226     -3.939007553841974
O       1.657128660324795      3.334099675131184     -2.182593340876825
O       2.383383571336445      0.051877418989165     -3.469300701130831
O       3.285642023295384      1.624454166930893     -1.523676477290181
O      -3.039737487397762     -0.744882427551566      1.050740695599932
O      -2.260972845794339      0.860258989768631      3.012411764030011
O      -1.392718792375238     -2.414340409322308      1.812683444818145
O      -0.266817942719181     -0.734288220880542      3.547586318473241
C      -2.187570211578535      2.145765174562313      3.180141222593182
C      -2.625598332690181      3.946517924942795     -0.432064003352115
C       2.069481623019166      2.198498073470642      3.020286312683863
C       1.720121470282772      4.090981647313296     -1.129785216439545
C      -1.377690190757611     -3.216081500338760      0.791403623742164
C      -1.862159990408795     -1.230019210080263     -3.428019776574451
C       2.807747916760269     -3.006292945220639      0.088410691014352
C       2.314914785836229     -1.234447544847884     -3.632834914696513
C       0.828874592581505     -1.421254558947640      3.700980687779365
C       3.970167450338675      1.382895339006044     -0.451046841015126
C      -3.744989782796813     -0.466058335510054      0.000677929852582
C      -0.615407934889295      2.466726924454218     -4.068387102465500
H      -2.386030900827531     -1.705352269981083     -4.250752187057920
H       3.476767130374706     -3.866133280325304      0.153013571951502
H       2.588818436259948      2.674578827984336      3.845322988683809
H      -3.309519302712306      4.796543635244780     -0.458974350151438
H       2.918941283349738     -1.650343454715867     -4.439263299505266
H      -0.728798485180348      3.021801546001782     -5.002342717593782
H       2.314860955148530      4.991926498297184     -1.249179805548308
H       4.986563779294314      1.765557713333616     -0.447499554760131
H      -1.777158426111658     -4.209147214977829      0.979694804478844
H      -4.756066053265509     -0.862613340408979     -0.003030051027278
H      -2.827752456830872      2.567541799089913      3.955017943170329
H       0.969913599926478     -1.910387246392327      4.667555593686729
Al      2.726717559727746      7.805798396685103     -0.846950704981144
Al     -0.440124649967870      6.808449408593654     -1.091674349497014
Al      3.221734837725079      5.856747407168513      1.735889899859661
Al      0.138258521992758      6.605249179513343      2.059893241725393
Al      2.405080074564929      6.207023879643359      4.306450111941217
Al     -0.039582755503135      4.839399151398181      4.644153054347766
Al     -2.218266257009776      6.421133530800975      4.270747555861841
H       2.772607170904241      9.339001382734102     -0.406319380166293
H       3.563517423810644      7.531405498248257     -2.177736570947679
H      -1.503804266258374      7.944531043499638     -1.441994250952711
H      -0.619727480842954      5.530588634273039     -2.032129067574459
H       1.144795486932767      7.338653551092724     -1.118669806997171
H       3.338986074617596      6.845836551701677      0.376701372927194
H       4.086979762161747      4.585094294737375      1.253102164531552
H       3.045488437812254      7.004338148178456      2.961962971047472
H       1.424778707619428      5.286552505571534      5.307324210469916
H       1.149749642102996      6.875815960800792      3.378973664214003
H       2.715668402010670      5.047616222431832      3.122196739596736
H       2.310331949243559      7.454982761227399      5.324607026007307
H      -1.366635152972038      5.517216775404484      5.386503960140316
H      -1.938262905261526      7.815109055812228      5.011939623661899
H      -3.104427892198013      5.296530341468466      3.545853574675945
H      -1.259794909102412      6.856032012730621      2.959467800676596
H      -0.541705077357217      6.410646579311685      0.531322398025959
H       1.568443447273755      6.005928300445082      1.406780315237659
H       0.378612607699517      8.133622100934595      1.627181992448697
H      -0.052981255408069      5.208230831410110      2.992543369051805
H      -0.101541625026024      3.248473704651451      4.862788835383757
