92

Zr     -0.139060303954105      2.090168378186442      1.431885742243435
Zr      0.219627163280071     -2.214485706813404     -1.517054709945480
Zr      1.632803466045093     -1.421985726104365      1.492280779342828
Zr     -1.549714194767475      1.308950660032868     -1.586436618643977
Zr      1.832171792549156      0.794161528519783     -1.738555808262270
Zr     -1.741496158356651     -0.927279864862284      1.654114328184027
O      -1.571501881438666      0.866652693530896      0.510720694422871
O       1.654190236205140     -0.991285535834849     -0.601571136069635
O      -0.178379480421435     -1.889851976364775      0.549665491476619
O       0.267140899755620      1.768906111176968     -0.636849103930995
O      -0.036529626977037     -0.134280185286281     -1.976907195365441
O       0.118165878127225      0.014434159094273      1.887900151861758
O      -1.048422028242391      2.104429473354406      3.178213655881495
O      -1.441455025397313      3.516595832566396      1.011874520789069
O       1.514738429076639      1.869128193325121      2.655330478180558
O       1.198930023117361      3.491001010697467      0.797213162611673
O      -1.082907158399570     -3.639223555009094     -0.863463346194614
O      -1.467757815783636     -1.989162173604469     -2.692340269496633
O       1.552592325388746     -3.621219481720952     -1.132874680531501
O       1.087153927637225     -2.215300307161056     -3.285252017976142
O       0.931609981462741     -2.647934647538223      2.871563422966068
O       2.166539188984117     -0.333331967138117      3.129104649636409
O       2.581316953370319     -3.027126818246645      0.868348175811707
O       3.450695299311541     -0.562212807457709      1.002723836477653
O      -3.371082737710574      0.452506284564277     -1.087876869352595
O      -2.487461525850114      2.930825463608949     -0.983822011182790
O      -2.095987663473501      0.210116956359779     -3.214305497095014
O      -0.832903590801141      2.528005494755655     -2.969602481794436
O       1.482316450779888      2.280652243799147     -2.981146200360345
O       2.656938375276613      2.326236641061542     -0.623629322225105
O       2.232863714351268     -0.191772997716913     -3.403105413304313
O       3.699457697560340      0.144491894807135     -1.220343251701490
O      -3.605902959245587     -0.299874121430002      1.122312239264122
O      -2.152956366641991      0.059716640462294      3.315294817892704
O      -2.551941107378367     -2.487505883629171      0.557860603484911
O      -1.382327214107191     -2.404054634971379      2.909006541589783
C      -1.812686809452230      1.231022794119163      3.759363386847588
C      -2.292058461220784      3.694631531933001      0.047375964426272
C       2.147489737956322      0.949234516492868      3.318276425199051
C       2.292959389254196      3.327124736641201      0.120149406417758
C      -2.166169827470676     -3.496156160695961     -0.164581836320173
C      -2.097020848543226     -1.077358871469007     -3.370683825313100
C       2.406592700946957     -3.786580228267106     -0.169442604422344
C       1.869521892676028     -1.352167333851174     -3.857870859768199
C      -0.261799385198150     -2.933800252776983      3.294697205884975
C       4.128644704131862     -0.222604375483244     -0.052310377000250
C      -4.040704995985189      0.066992972094054     -0.043369018626828
C       0.366065377505116      2.809113477995058     -3.380810341945814
H      -2.716491848985965     -1.446430654737924     -4.183723720827192
H       3.051640739411188     -4.662152043083493     -0.241924407091610
H       2.747973914218905      1.305983473780856      4.150367746733912
H      -2.914715088112036      4.586818767960390      0.112187836807712
H       2.264346400963486     -1.632298396184694     -4.834340362384726
H       0.444230865068993      3.578794630230242     -4.148495630336773
H       3.009280710687630      4.141619959379663      0.188538601789151
H       5.209518960024773     -0.244255017661662      0.060760550964012
H      -2.851276766138215     -4.339435440537878     -0.191227096907236
H      -5.120520826350297      0.046803701361625     -0.164195048931497
H      -2.213428457927371      1.512462298806392      4.732964594338165
H      -0.331050679035188     -3.709123312563195      4.057546371442190
Al      7.363843551794091     -3.183524174221430      3.906470584144524
Al      5.319575580521388     -0.818778729598753      3.630193839877747
Al      5.641480042538390     -3.505115101673036      1.861020359653317
Al      7.059732637130035     -6.184688493262912      2.985634475348236
Al      3.050846393022940     -4.854735351590784      3.367655328080116
Al      3.175743842512942     -2.381046007430626      5.539476438110754
Al      4.903756735343646     -6.666463824956912      5.390855927624557
Al      2.114207397620994     -5.321916966266079      6.341254690350408
H       0.740242755449401     -5.868164301312548      6.940430659028368
H       2.080316489803073     -5.282461335925590      4.666990850537954
H       3.529171597935876     -6.215753915030178      6.246917106587197
H       2.454363618956505     -3.682905739008990      6.313816306193477
H       4.582927519963345     -2.962186398525572      6.029158828940506
H       1.757552782472199     -1.709232428360239      5.225262882668981
H       4.070650724670221     -1.293173981791713      4.632660060702745
H       5.378386341326714      0.677026469209359      3.078167790129132
H       3.093999110696084     -3.399298695227172      4.210984808829856
H       5.184210172771693     -1.973796657360618      2.424947279975261
H       4.217455848542404     -4.281857270751337      2.319738671595649
H       5.453306772586981     -3.222797398894056      0.284751871414968
H       6.176331753012388     -5.103718228792379      2.058110031555917
H       6.108085317487198     -6.771705751072776      4.228190463621945
H       8.077787153628240     -7.147856655578752      2.223845088498118
H       4.233651062623439     -8.039584207577759      4.917228488751217
H       1.901975507623154     -5.321714403486184      2.342168174640664
H       4.117068335105211     -5.894223723684722      4.134420327715642
H       8.442384782286775     -2.986733962509381      5.089636830695239
H       6.693247602081171     -1.643772493090804      4.116585804505275
H       7.718828343893334     -4.828180583970918      3.716130953131609
H       7.224148828662107     -3.026795911194428      2.230379432967650
H       5.617241787552754     -5.333715571778336      5.913674876156618
H       5.783455572692163     -3.653348537024818      3.542014995567016
