12
Coordinates from ORCA-job run
  Al  -0.01476193612468     -0.03146393935311      3.40703178451310
  H   -0.54881012792455     -1.25134950794142      2.32510977251464
  H   -1.25790448877308      0.46490591374629      4.25401517317362
  H   1.39283348688686     -0.53666444576558      3.93101880449725
  Al  0.99104867147559      1.18247246440999      0.69556426460636
  H   0.24333905155003     -0.23986251691944      0.09431603927274
  H   0.37413695433035      2.42631793323966     -0.06704953866963
  H   0.23557730753182      1.19829530520152      2.23629033633190
  Al  -1.15812256146815     -0.97797953016429      0.74704325015429
  H   -2.29361768984776      0.12556223530810      0.84343351789326
  H   2.51777694957737      0.79820873207660      0.87664111000028
  H   -1.22010561721381     -2.41159264383833      0.07512548571214
