92

Zr     -0.698457273822728      2.079006985964991      1.640646161927400
Zr      0.792231733889953     -1.476906186893976     -1.906203629588464
Zr      1.471445641348298     -1.223929121792440      1.385975909717619
Zr     -1.334090640109924      1.833117908206357     -1.673838762334090
Zr      2.055513652333704      1.633794751550470     -1.212913526055483
Zr     -1.899508865839947     -1.064047919601677      0.962842363540606
O      -1.690149415100374      0.908355863749222      0.239413291656713
O       1.802995470172007     -0.296287314942524     -0.508218250816613
O      -0.115350253183355     -1.408777972898217      0.002032862424683
O       0.222591685877968      2.076027433294298     -0.298926870676841
O       0.406111695895731      0.642352918085288     -2.173426563402097
O      -0.267931532829711     -0.021457776449488      1.896196142179492
O      -1.966217096935834      1.566153233169979      3.086317283726812
O      -2.148381248953721      3.374233253154595      1.228830680312101
O       0.701143287769625      1.969320554437440      3.064839904469189
O       0.439864816623593      3.781707722064752      1.379199923827201
O      -0.275913089372408     -3.228002146387138     -1.556532057716772
O      -0.699628957232361     -1.387157170937328     -3.216977177370259
O       2.292960273575221     -2.728444994213548     -1.500982083520195
O       1.939892702899351     -1.011211059261528     -3.448208522534248
O       0.706478716505821     -2.202343200208637      2.921054358569071
O       2.069258814133833      0.096236184513740      2.779607769560913
O       1.924073784755611     -3.064364406039205      0.771149348561666
O       3.499376481279214     -0.954703057893028      1.042321673650571
O      -3.337778621437299      1.411727905283174     -1.403084979946221
O      -1.888097684935340      3.641193584323009     -1.067283341544362
O      -1.858616892081167      0.641991727188125     -3.217219443174204
O      -0.495333032548905      2.900359351132922     -3.122614511921352
O       1.723111383955819      3.131085180325023     -2.451609667654443
O       2.329387819119114      3.189399214863233      0.113144090488394
O       3.086801006918462      0.886270947494580     -2.724576118878583
O       3.744212608421543      1.058027931480193     -0.152634299896640
O      -3.347162649032954     -0.739570286385610     -0.452490753637430
O      -3.208924189027649     -0.167156408860185      2.142225350793555
O      -2.002405490236733     -2.890116385595182      0.005528224977042
O      -1.592424362864838     -2.226707007386917      2.531073200204667
C      -3.002332848149005      0.782275658206405      3.007810744519043
C      -2.308412560201892      4.012798771128195      0.106467225875570
C       1.669885242225538      1.171149968226521      3.382695993546066
C       1.621669692758855      3.964859821471729      0.877161222598621
C      -1.344959078485049     -3.550409980278248     -0.896693491549429
C      -1.544654881254617     -0.524384718048344     -3.684708868237153
C       2.433779805796710     -3.383813664275551     -0.384445556256035
C       2.861337354583654     -0.099612664067371     -3.540888624877659
C      -0.517578197563357     -2.546830600412216      3.186406862334481
C       4.158407608792823      0.051591678671051      0.555831779832919
C      -3.888677120173794      0.303246992230009     -1.009735119703355
C       0.697331064999747      3.410312011166281     -3.198840408218298
H      -2.072717890830173     -0.828275790519282     -4.583938471156310
H       3.035762866361820     -4.295077259071114     -0.421989200646131
H       2.234707879784110      1.449559020848602      4.267781263548048
H      -2.829620046289745      4.970620299974249      0.160370240095598
H       3.522204940076515     -0.169497126882620     -4.405442532411443
H       0.855481875825167      4.156904554835609     -3.977655605454103
H       2.089974502610011      4.910032831608152      1.134685345677478
H       5.223545071336684      0.048038894449341      0.766151959932667
H      -1.742219584128756     -4.534406588870127     -1.122416125140713
H      -4.959057154344826      0.227689511345777     -1.184371210249520
H      -3.783678223875355      0.935624437645252      3.754585871631179
H      -0.659489245841150     -3.175516166785371      4.065540725877232
Al     -5.776792982321457      3.545401155436089     -1.099628509649448
Al     -7.310829669954193      1.429388854302236     -2.872550196169781
Al     -7.105498719287077      4.637033749705576     -3.177421173954674
Al     -4.773020900406120      6.440220164966020     -1.863125279286997
Al     -5.117050538453632      4.141027652292036     -5.752059679294113
Al     -4.710635699005424      1.030654656529041     -4.784589031401067
Al     -2.607499831652604      5.181188721265914     -3.919987601331719
Al     -2.281974946888235      2.751239949138055     -6.026032282741713
H      -1.257122419552404      2.486102450163083     -7.218821407141080
H      -3.695687954402298      3.557469176349310     -6.435444684833107
H      -2.000904504885832      3.991327753687028     -4.936553510934911
H      -3.260467249835718      1.505091430450544     -5.484176741134385
H      -4.166045361048104      1.792340883053021     -3.491356947228031
H      -5.262086192769438      0.332755129331899     -6.113580875784572
H      -6.140808899413630      0.875833901805860     -3.927420136104514
H      -8.561440887349335      0.508425052229552     -2.507952786506924
H      -5.247894234518711      2.521804037153428     -5.321197535725950
H      -7.565967069339028      3.014510888247688     -3.348743020769507
H      -6.329214955131669      4.542675001197686     -4.672283670560030
H      -8.406143504898955      5.349333919558798     -3.808875201326074
H      -6.095966978821659      5.931795312033394     -2.755812091696987
H      -3.470701294369799      6.158443309751907     -2.870257554157686
H      -4.850762797144660      7.789229977424098     -1.015828851336273
H      -2.111014309648685      6.386195944872824     -4.846935797533384
H      -5.713623007476869      4.701065083164573     -7.134797817172839
H      -3.997224260608487      4.991764925850463     -4.832507752038830
H      -5.085348085646623      2.914260009390030      0.214840108553611
H      -6.486031788106988      2.081116991333178     -1.566873158965967
H      -4.984088536329839      5.035065655922084     -0.975181847922204
H      -7.201490856168295      4.353852385044044     -1.509139944699032
H      -3.156212650573561      3.976972664311096     -3.025489718394623
H      -5.680292750827344      3.825347500750993     -2.762686174636639
