88

Zr     -1.047112109671806      2.282514212845194      1.576508215438357
Zr      1.067742584643805     -1.742630218712656     -1.070334632414193
Zr      1.708980139050332     -0.521551359259865      2.010404175460148
Zr     -1.677370973069047      1.055084871054035     -1.509475760091947
Zr      1.676475708589706      1.628551729334502     -1.263645368179368
Zr     -1.630757448057406     -1.089103477318822      1.797211050443292
O      -1.870230707430295      0.632458632655307      0.601450393237250
O       1.909697935944953     -0.103887391659232     -0.093179012481620
O       0.166247431485233     -1.301678446355494      0.790410206782809
O      -0.143470906576131      1.853354446566848     -0.289936105004162
O       0.259169580431481      0.116961603856076     -1.809636252913189
O      -0.218913074532836      0.432444846877219      2.321600125405086
O      -2.066202754896908      1.944883421903959      3.255927323881989
O      -2.792009735813315      3.068662998769077      1.026850169184571
O       0.452285914015324      2.836643900263224      2.746182959659750
O      -0.376438178393597      4.034313237049535      0.694660952541948
O       0.380476544254366     -3.488963875268337     -0.187825019453101
O      -0.418684567372783     -2.280374792349789     -2.269807937176704
O       2.799231590422422     -2.554412087739942     -0.516525566261999
O       2.105354194496166     -1.403949855217278     -2.738027558913654
O       1.154760108289518     -1.331619920319220      3.723503167612299
O       1.998246471771283      1.129581471403579      3.150845812676991
O       2.631337618960002     -2.265609179502777      1.786147924774558
O       3.602923757939251      0.186051998039569      1.560890662653037
O      -3.546458158242381      0.284892180200375     -1.059982162705608
O      -2.642540505646385      2.775608640826377     -1.276549520630656
O      -1.934730900383826     -0.556692682369911     -2.718353348155172
O      -1.119819029473083      1.918797257838861     -3.199201592336752
O       1.170120147889339      2.313188888245925     -3.041656685681326
O       1.414774373813985      3.616106315973671     -0.771183596437102
O       3.075727120123352      0.674499725944241     -2.307746655518526
O       3.216117904665916      1.948736654464569      0.053426175724920
O      -3.135884728767709     -1.453843979394116      0.469139707483957
O      -3.047670611959458     -0.125667744177531      2.813125905793283
O      -1.334361954788405     -3.084316119250770      1.369289018967409
O      -1.139119216550582     -1.712756506201761      3.600021681038467
C      -2.940362397156746      1.001107807830207      3.457210070663411
C      -3.164453623447759      3.288472900986149     -0.200027259347481
C       1.491989069202277      2.311239203585481      3.311387409827891
C       0.623025921258672      4.361695129419928     -0.064040023005014
C      -0.569262058383956     -3.824518102680171      0.628690329562675
C      -1.412883678513481     -1.729847527518370     -2.891834184421541
C       3.146443206787765     -2.794843879033707      0.713800316794895
C       2.981460671991297     -0.461717886628324     -2.936115981345040
C       0.011843910122329     -1.724366022171833      4.199557382971000
C       3.934500461161630      1.231209581041934      0.865878438801909
C      -3.863247681704415     -0.756660072145680     -0.352634718687064
C       0.021675717065933      2.346803869784024     -3.645779480752547
H      -1.882618262156326     -2.341917083723597     -3.656525203673701
H       3.939505714290832     -3.531350261357977      0.858237180708859
H       2.012866324513352      2.953822244793041      4.015127430741110
H      -3.994877763516083      3.983236908477787     -0.341747639441102
H       3.720292003772702     -0.644527015960367     -3.718699610044031
H       0.014316392729502      2.785602086471546     -4.643358079061109
H       0.818055276351261      5.426782063564432     -0.130791283860904
H       4.963244074671011      1.560097734612686      0.989208104348241
H      -0.741078528652627     -4.891815505613740      0.717799946674316
H      -4.886270909318783     -1.103350619938694     -0.474591730410404
H      -3.664536222884037      1.173894790654836      4.255946096465339
H       0.016655218794497     -2.106457412717386      5.220234232257690
Al      4.813070661252976      1.445294793923194      4.955474433939968
Al      1.946957495559804      0.524129784440559      6.381363691502631
Al      5.370439741562283     -1.486105237007938      3.675576253192387
Al      3.256580534132505     -2.399961275175205      5.884673623009011
Al      5.135332587172124     -4.175013010821915      4.001473566958766
Al      2.332099182961830     -4.640283417148184      3.882446055325169
Al      1.579187225816779     -5.107249076376257      6.454526530367436
H       5.762690129653214      2.114743389704938      6.048815655473224
H       4.640126136306844      2.420116893600783      3.703478822390450
H       1.878795715389632      0.930049766334007      7.922819815993263
H       0.590401542700929      0.894801556226698      5.625429836842588
H       3.330900271197698      1.120815934847195      5.656846462240217
H       5.508622917441991      0.032848713106774      4.396162390755688
H       5.908182514530199     -1.028382117141847      2.226143858334823
H       5.939403166117497     -2.797673816518716      4.569327395239272
H       3.851238192371321     -4.970467954737722      3.272634360656602
H       4.367991088476646     -3.560365840205372      5.383683073464006
H       4.682476596465073     -2.877076338421185      3.029720947104106
H       5.952059944678942     -5.563805851439260      4.066341703941842
H       1.769798896919390     -5.791816991477359      4.944195175357527
H       2.825613954117483     -5.886308034160006      7.095803393877086
H       0.100144891579639     -4.507252405031748      6.291908107583071
H       2.360790644092552     -3.625872312336249      6.610012537415620
H       2.235025052945696     -1.112440692382867      6.219307845367734
H       4.032805390355875     -1.462756947069259      4.721920959301993
H       4.185157060638304     -1.956625270569953      7.117464845589572
H       2.409276065210658     -3.130534593995391      4.628039709250531
H       1.297370214290466     -4.481185741343246      2.663739411362311
