64

Zr     -0.409431877154914      2.064312344082858      1.557024680539812
Zr      0.384301527880562     -2.037338357698887     -1.584822780452987
Zr      1.604559039122786     -1.334842372924667      1.486304213126455
Zr     -1.631375061636707      1.359258933586589     -1.507873941450585
Zr      1.775889711691235      1.101866418245786     -1.601894839898019
Zr     -1.792441947848431     -1.067673997871620      1.605818678072144
O      -1.661439220868248      0.735698318463690      0.551599759590621
O       1.650733007872194     -0.719450276600088     -0.577998102619514
O      -0.189708016102718     -1.640110552659818      0.421791930104871
O       0.156719454639540      1.697713787584543     -0.455283555848968
O      -0.018718160616534      0.027941971872156     -2.103245599963682
O       0.003213711462302      0.005845360170773      2.091295266779381
O      -1.302732601721300      1.855753103355522      3.318843200155338
O      -1.951750859776914      3.290652412635947      1.249802864495340
O       1.285801084740964      2.120447416751966      2.599474058485935
O       0.597214881787161      3.701852099181349      0.790527827817376
O      -0.643717719378248     -3.657786697578216     -0.802095352623845
O      -1.290862794182201     -2.090999206897220     -2.655917536595498
O       1.911907965198618     -3.279481653310062     -1.269096655109841
O       1.299348122907555     -1.816086984689953     -3.335083038933018
O       1.058704671313536     -2.121860440562634      3.216755330660082
O       2.429733591399768      0.084549930126761      2.661766585915717
O       1.981368689949199     -3.240006300588055      1.055877499144299
O       3.549878555570315     -1.110276867199183      0.814608344474707
O      -3.572147468829482      1.107643176416192     -0.832699392922987
O      -2.038570535787113      3.258727481471984     -1.075024162203495
O      -2.442220552664075     -0.057533101198260     -2.693393407665174
O      -1.072210211275306      2.155927555595321     -3.228653171943798
O       1.256861032968716      2.182595946936096     -3.165425704881201
O       2.154434844160109      2.979619563374289     -0.817002595552806
O       2.715866659419147     -0.002639278671976     -2.951606827710288
O       3.522242235187198      0.809862803537234     -0.543682529016841
O      -3.524330774300258     -0.813414182177653      0.524230478372805
O      -2.748275873635536      0.068291831524439      2.923518890583577
O      -2.138464629185405     -2.967621978000631      0.877396556349057
O      -1.271157801241771     -2.090479661387224      3.208101939332568
C      -2.326825719982188      1.101666147410178      3.593133519591829
C      -2.317152804066922      3.762301483395457      0.093019510326739
C       2.211341536687125      1.312846865322475      3.008741517629735
C       1.624002579363346      3.829132087734673      0.008436245830173
C      -1.627370302970709     -3.806213797824360      0.029772260171472
C      -2.215514587087093     -1.279056388118633     -3.059275648966221
C       2.271245851894540     -3.746128423803088     -0.108374621288879
C       2.310719918048897     -1.046851870006939     -3.613228001526918
C      -0.111824261318972     -2.382847776446267      3.714771749882523
C       4.086911707843656     -0.135585874203254      0.146559418194090
C      -4.098705055753754      0.127122276578312     -0.164731756838297
C       0.102352561456228      2.461836702537354     -3.690425804795206
H      -2.905415412129351     -1.683260239888375     -3.794443908529253
H       2.871675099904329     -4.658657060728078     -0.111213847368730
H       2.907963381187737      1.726932472770202      3.731858689445476
H      -2.915986494773667      4.675772710659230      0.103210543592241
H       2.884626588724382     -1.306770074306642     -4.504128656858699
H       0.121251060373761      3.015938952291887     -4.628911415922685
H       2.106442859415838      4.800778804171395      0.038673586888771
H       5.172528771138009     -0.103121821467977      0.171483501141443
H      -2.086938921348211     -4.788945700739787      0.025462350395369
H      -5.184049820426125      0.083584577400484     -0.189445274156729
H      -2.896823255320158      1.365747063207471      4.485641588572751
H      -0.122141006768684     -2.907724256484345      4.669953239639236
Al      0.380043363717471      5.086376519303319      3.953415386586674
H       0.558878915397139      3.851371826708724      4.949499115456507
H       1.657231220422989      5.501185919368435      3.089922129265999
H      -1.060091281398245      5.313295145545776      3.303138517659305
