32
XYZ file generated by Avogadro.
Al    -0.43173    3.56429   -0.00000
Al    -3.69097    0.57122   -0.02213
Al    -0.05265   -2.69032    0.00000
Al     2.99728    1.09639   -0.30043
Al     0.35428   -1.88643    4.38289
Al    -2.95132    2.45580    5.00043
Al     3.33795    2.55422    4.32832
Al     0.43241    1.52112    8.69372
H      0.51513    1.38528   10.84313
H      0.53322   -0.25005    7.22247
H      2.00575    2.66783    7.01622
H     -1.37431    3.02949    7.44175
H     -1.41589    4.84861    4.97657
H     -4.36243    2.61924    5.68385
H     -4.32787    1.40772    2.76707
H     -5.50052    0.03452   -1.09373
H     -2.68475    0.27298    4.67416
H     -2.39370   -2.31257   -0.25016
H      0.20812   -2.81929    2.47344
H      0.03360   -4.56682   -1.79763
H      2.08037   -2.18350   -0.52862
H      4.88236    1.88118    2.27376
H      4.16729    1.04895   -1.86710
H      5.54745    3.25951    5.55030
H      0.55854   -3.29892    4.87084
H      2.27182   -0.32581    3.93167
H     -0.78093    5.54732    0.97382
H     -2.51715    2.48372    0.12374
H      1.61702    2.82558   -0.32459
H     -0.88103    5.21571   -1.84194
H      1.79845    4.57442    4.55204
H     -0.87207    0.91461    1.35052
