80

Zr     -0.633950354989196      2.205424240812413      1.404206174700175
Zr      0.462833009259376     -2.054272783318513     -1.463106825432160
Zr      1.799800742090805     -0.948126952494100      1.495403177567813
Zr     -1.962960110787691      1.109751573614907     -1.563035870606760
Zr      1.439468023750488      1.159075421413098     -1.798036240417539
Zr     -1.604592375039050     -1.009221025575207      1.735035922926425
O      -1.793747233243153      0.741657525862209      0.491118161946887
O       1.624421992023690     -0.584162166638028     -0.555338490550622
O       0.060737834294660     -1.900556477883215      0.658531439619737
O      -0.229264452103759      2.068687225854119     -0.725993393184599
O      -0.269713576041755     -0.070916836471643     -1.730140836383059
O       0.101922573678025      0.228068408365689      1.666661549100331
O      -2.150047700818597      2.183271571898650      2.703039849729200
O      -1.705511619901274      3.695119711712091      0.650584760815293
O       0.418071414498992      2.063354481079309      3.186957937865093
O       0.962762746024372      3.345183510699103      1.114150510055549
O      -1.122852597804586     -3.212085411815866     -1.155315863418160
O      -0.592132957474217     -1.920203528980003     -3.238311716398643
O       1.509090077517705     -3.558621653067476     -0.692091585265950
O       1.980551652063303     -2.039084510214274     -2.757541194190932
O       1.366022942483989     -2.130503461752637      3.013049795417574
O       2.078853429633128      0.406818316224540      3.025516969438192
O       2.868764599601334     -2.496790549654870      0.877858940366932
O       3.462184543248246      0.100556632759075      0.857953915637247
O      -3.624669834682837      0.057465982096368     -0.932200453532778
O      -3.042651733211860      2.648017298091158     -0.947512734784832
O      -2.246035902541716     -0.255975074693146     -3.089531508150299
O      -1.515710106120469      2.251493857747371     -3.105370774864315
O       0.801694319941682      2.500205848929196     -3.096547009605895
O       2.176516826114222      2.732277705329030     -0.786236739617457
O       1.858262450512428      0.169671841636814     -3.477785449510294
O       3.430294226628286      0.714425811217693     -1.413961885389230
O      -3.591799427314339     -0.584287669097601      1.331187128798400
O      -2.033157969160269     -0.029198450079783      3.412108002083808
O      -2.324756581178025     -2.624305211743198      0.760876596837160
O      -0.952842212486489     -2.362950927190489      3.022324729581936
C      -2.418010488063053      1.209740152837644      3.524557968705273
C      -2.748310851679102      3.610085794581494     -0.122742659609416
C       1.472957110343703      1.415210813123499      3.572861238495273
C       1.950610312014000      3.430064962439067      0.281520676354868
C      -2.049130575950411     -3.367512922443222     -0.263677382411853
C      -1.648565559353121     -1.275326235261447     -3.625321707648911
C       2.529992078757098     -3.492084005448024      0.111523931926638
C       2.248427983873539     -1.068406190745822     -3.582528718375101
C       0.246377472123693     -2.627493418008036      3.445058790650542
C       3.996050754453841      0.445589002929094     -0.276516984042502
C      -4.156874074746046     -0.316954664977215      0.193280067713564
C      -0.390007440999687      2.699420820472111     -3.574332578067141
H      -2.095043589764026     -1.636368560489880     -4.545883348275372
H       3.174747312989081     -4.371713360808033      0.147904820861809
H       1.911035759782207      1.763785785796273      4.502173474791123
H      -3.453775993441217      4.441549107412911     -0.076664258767926
H       2.856927166423800     -1.319321204968035     -4.454426259200567
H      -0.454467242179578      3.318024710331538     -4.469697668153149
H       2.691969788881798      4.190532701739784      0.509574301181841
H       5.079463279106604      0.528850142291810     -0.270151675240473
H      -2.692692552446389     -4.231500355187200     -0.401972248546699
H      -5.237604832720256     -0.427833876938881      0.177999571529366
H      -3.022079948459446      1.458732783667481      4.400012195183082
H       0.321940607958455     -3.351631903166327      4.256242661704155
Al     -0.012886463485832      6.362342895820492     -0.607671259192087
Al      1.680978926429433      5.576316504211072     -2.540272041761073
H       1.728771521672064      6.788918982943897     -3.697703896325665
H       3.168288642228377      6.135996220432362     -2.267425763079208
H       1.578057954612950      5.974300950950343     -0.914237911642598
H      -0.106686888351946      7.863912047910364     -1.160644991533417
H      -1.086732185441159      5.598106865056427     -1.645743589690576
H       2.674097600534548      4.328651357052027     -2.800494999202928
Al      0.384181040321110      6.596095508660769     -4.666627072971290
H      -0.890787726186607      5.915028228969425     -3.820924576601103
H      -0.173145600801939      8.076363153804898     -4.402780593416951
H      -0.242528632361879      5.598733761329308      0.782477561632618
Al     -2.248796089904490      5.567970928748689     -2.877295113437933
H      -3.026714180053498      6.417794625126280     -1.641257171509166
H      -3.043962372652131      4.190621408033431     -3.166828416013806
H       0.745603897019559      5.289969509951741     -5.524365442720724
Al     -3.721365176047747      7.723073338945068     -2.417260918880922
H      -5.133732413919950      6.983928960409793     -2.576538936241088
H      -2.977262483226228      6.877639053602994     -3.651863811169421
H      -2.490099194987868      8.727531050322931     -2.213493570247072
