76

Zr     -0.366952657402275      2.099342642022566      1.466763615757421
Zr      0.469557980454351     -2.243363389374567     -1.345132167506733
Zr      1.942023457609016     -1.142130732758577      1.549185560466168
Zr     -1.868120373140305      0.973225119435138     -1.407448104576777
Zr      1.528274418832513      0.927597648419467     -1.791328671445376
Zr     -1.442718761108841     -1.064928724722592      1.919878142196866
O      -1.617495330227110      0.651269992568327      0.641360062553600
O       1.709341894602629     -0.797458915531110     -0.507780541167363
O       0.144023248957890     -2.045881947520407      0.792237524106870
O      -0.067154164150604      1.890453997131251     -0.669711948193697
O      -0.208834603735741     -0.251412205275412     -1.635516366421579
O       0.303397050138334      0.103606574194915      1.751695820163500
O      -1.833391129773947      2.166821018209145      2.819319354062678
O      -1.384227835408483      3.626396967033001      0.706472767286155
O       0.748519849376843      1.966292081090812      3.207622042712633
O       1.253282538390287      3.177978997737926      1.066051880779214
O      -1.169063005631206     -3.293574262256017     -0.974916832542202
O      -0.630899027820200     -2.110521020600957     -3.099867085593541
O       1.494004213660567     -3.764331180295400     -0.584474946258788
O       1.948180239584358     -2.315912637214367     -2.681820309330443
O       1.525698559257664     -2.291221783709801      3.096163667301637
O       2.308113815560545      0.211742785157010      3.069303642902683
O       2.956297357380757     -2.713535860353343      0.898263008418508
O       3.594442913957965     -0.126460875540461      0.858826886491439
O      -3.539763335713415      0.006002814162289     -0.675781211639174
O      -2.846429311642360      2.578120481406361     -0.778496336489929
O      -2.253229884364651     -0.421470670957165     -2.883804022517931
O      -1.478485218995428      2.095946119062034     -2.978649278255137
O       0.843747445119135      2.233672035286394     -3.108837833400075
O       2.316234646290095      2.573013030965928     -0.925114594818635
O       1.904614203266048     -0.117129400748317     -3.441407665393102
O       3.513135712863829      0.473068134257369     -1.414132558742048
O      -3.433407833921408     -0.557416705322655      1.606750525680356
O      -1.757428424443752     -0.026853702495410      3.590290175587142
O      -2.276548511581559     -2.627854349173467      0.972068925220666
O      -0.798919814035960     -2.410606483655293      3.211747214779464
C      -2.101101265231202      1.226256190363841      3.678669305325565
C      -2.437973730280042      3.579260145162135     -0.054887438159690
C       1.779773436611834      1.277553083658469      3.586666332757726
C       2.122750962147777      3.317844827514112      0.116628373821097
C      -2.126526821169319     -3.331541858533313     -0.104584479126577
C      -1.695338998994900     -1.452552037441974     -3.440346367291966
C       2.567725123903165     -3.703351153891196      0.148186429725428
C       2.238689034780018     -1.372462467634634     -3.529979646498794
C       0.403799102076360     -2.699845436825213      3.607707865950332
C       4.103960610949148      0.209708288109329     -0.288741038906758
C      -4.036719974776360     -0.294553466061712      0.487593736652957
C      -0.363677066957536      2.529297223830924     -3.484319138250203
H      -2.190318233602397     -1.813247302929281     -4.336032114359810
H       3.212574250265015     -4.584039514573249      0.137987551899435
H       2.269004708849373      1.641230656069608      4.484087677152170
H      -3.048718269783962      4.482866928313786     -0.091166773142652
H       2.816596993002325     -1.665307128174700     -4.409424818341537
H      -0.451290490306461      3.222764533153687     -4.320711169162668
H       2.791124838278234      4.168501599301865      0.214547370114625
H       5.187466155679557      0.288635835812361     -0.307372405415273
H      -2.917584846708038     -4.046423273173358     -0.309662272474044
H      -5.121660212694192     -0.338398890285457      0.528580254703859
H      -2.666357381722980      1.519200554146297      4.566469059661929
H       0.480426441986644     -3.371561841701448      4.463039846755534
Al     -2.657005038175043     -5.217377655163905      2.983400027841535
Al     -3.392083469461954     -6.870653439685654      0.200345819835859
H      -1.945862472091630     -6.708198004369399     -0.617817485335314
H      -3.709579794124767     -8.406487744233464      0.499219330926082
H      -3.201952773448709     -6.013697936191591      1.620655143948132
H      -2.925881563636580     -6.074942257504795      4.301195939287346
H      -1.029184915219294     -5.247577796133289      2.611892235654163
H      -4.539929824444052     -6.185940855232627     -0.672099004877375
Al     -0.368944451625489     -6.486918921792097     -1.117421503037933
H       0.234161961451252     -5.956882942188432      0.346859384376700
H       0.313787764370550     -7.871620374798453     -1.520559713849257
H      -3.273543023456141     -3.749588568652161      3.102705899237752
Al      0.411397663216130     -5.827889397461746      2.001523653548770
H       0.545062274599705     -7.321198399714330      2.547156632007332
H       1.695420333386908     -4.996979434435005      2.455185008685847
H      -0.265051924782960     -5.420678237802540     -2.301085959737876
