28
XYZ file generated by Avogadro.
Al     2.34789   -4.51345    0.56597
Al     1.60927   -4.90166    3.57331
Al     0.49217   -1.35064    0.84992
Al    -0.23214   -2.27769    4.36858
Al    -1.65345    1.13671    2.70948
Al    -1.32256    1.38381    5.63447
Al    -2.78464   -1.30429    6.08137
H      1.95885   -5.84440   -0.82884
H      4.57334   -4.64667    0.61099
H      2.62439   -6.14213    4.54439
H      3.04727   -3.43364    2.95941
H      0.99753   -5.67258    1.82186
H      0.82091   -3.03430    0.19333
H      2.27236   -0.19294   -0.15743
H     -1.85279   -1.53753    0.40323
H     -1.06786    2.86481    4.65459
H     -2.69779   -0.88126    2.70474
H      0.22556    0.70316    1.45252
H     -1.81972    3.76106    2.35451
H     -3.07760    0.69502    5.35051
H     -4.12330   -1.52264    6.82199
H     -1.68685   -1.85607    7.18491
H     -2.25401   -2.09709    4.26033
H      0.23814   -4.19346    4.55829
H      0.75695   -1.00453    2.55000
H     -0.60461   -3.05562    2.26819
H     -0.86101   -0.56471    4.07737
H     -0.27094    0.57047    7.45974
