12
XYZ file generated by Avogadro.
Al    -0.29040    1.46269    2.54708
Al     0.00000    0.00000    0.00000
H      0.84319   -1.12876    0.96367
H     -1.04899   -0.78377   -0.91239
H     -0.83361    1.13394    0.96519
H     -1.39555    2.30835    3.32886
H     -0.00000    0.00000    3.37203
H      1.04031    0.77865   -0.92676
Al     0.31331   -1.45956    2.54974
H      1.43882   -2.28027    3.32935
H     -1.02959   -2.32093    2.48327
H      1.06945    2.29797    2.47032
