16
Coordinates from ORCA-job run
  Al  -0.00033253518757     -0.00108308537812      2.43922242815895
  H   -1.73209919485408     -0.31300701130929      2.55793475599671
  H   -0.08597259726858      1.28051243189156      3.64842957388573
  H   1.73121816572925      0.30999105678653      2.56218288236833
  Al  -0.00037562902931      0.00159658775759     -0.16652880685851
  H   0.23322035700203     -1.14043986049831      1.11331590647776
  H   -1.40794827188439     -0.27479896679353     -0.83982285608983
  H   -0.23242632012205      1.14131952132198      1.11585996591306
  Al  -1.62148190023044     -1.56795424226004      3.74556087995222
  H   -2.14869859581641     -0.98869465490528      5.12308250268815
  H   1.40613206550951      0.27958352731313     -0.84137107130567
  H   -1.93451328723296     -2.95501751411094      3.04620324540645
  Al  1.61882629045313      1.56006479611631      3.75485235242165
  H   2.14155329077149      0.97397661574525      5.13119232620996
  H   1.93543939964187      2.94980360662997      3.06248086435163
  H   0.08330876251851     -1.28620280830681      3.64485505042337
