8
XYZ file generated by Avogadro.
Al     0.00000   -0.00000    2.06860
Al     0.00000    0.00000    0.00000
H      1.35866   -0.04544    1.03386
H     -0.05909   -1.31535   -0.90813
H     -1.35713    0.07574    1.03488
H      0.05770    1.28821    3.01623
H     -0.05861   -1.31613    2.97731
H      0.05723    1.28928   -0.94594
