68

Zr     -0.463697361779220      2.028353344098337      1.500117266342686
Zr      0.520710473565908     -2.078141351748947     -1.458787356168058
Zr      1.649492522510987     -1.316384632342623      1.638696913455265
Zr     -1.581983779619160      1.268650445572737     -1.593968924036151
Zr      1.842835421499502      1.071321093355578     -1.535344183324638
Zr     -1.776328780951733     -1.109535130155255      1.594033000025599
O      -1.515737826908973      0.560800089622662      0.401474488093705
O       1.613062867235724     -0.640648805535463     -0.379058184800847
O      -0.076039260054156     -1.851677540310212      0.599851240639383
O       0.143877814976342      1.809929597701959     -0.554240736305181
O       0.078041121268378     -0.036184325932685     -2.056940612597332
O      -0.008273235943116     -0.009193124348754      2.109502721392306
O      -1.455108570445907      1.903772865473123      3.205278268914095
O      -1.968944180328214      3.240798952724557      1.030178558687017
O       1.145837034718096      2.102589152715135      2.724311948973929
O       0.651701266338524      3.654391418372285      0.871430729789344
O      -0.633281453111977     -3.680025724618398     -0.832421988484655
O      -1.077021313547831     -2.140680842994239     -2.703592074939321
O       1.988145283466615     -3.326604318560315     -0.987914559503905
O       1.517425733993756     -1.947373272688276     -3.159789951559353
O       0.970793290221722     -2.045816098085647      3.362590357055890
O       2.421768344267655      0.145136413492395      2.754487497758965
O       2.078047739624241     -3.235471280359928      1.335709772059714
O       3.577335063297278     -1.108166491449259      0.926172818481684
O      -3.504415340255291      1.103505684220675     -0.834651465488611
O      -1.995561010346875      3.196377978717406     -1.295898475198483
O      -2.374530005528142     -0.197137163461392     -2.673988098159451
O      -0.916949165239353      1.975179041074171     -3.329449897359630
O       1.319258885667968      2.450492889992988     -2.865069825316422
O       2.377288186802502      2.734753004816871     -0.435874720673784
O       2.535842606988239      0.147282682322290     -3.132626536738985
O       3.671847243859786      0.544525422843309     -0.744816877318945
O      -3.615483806340777     -0.494484036501916      0.887309665159462
O      -2.431510180921480     -0.211442525872888      3.223825330963291
O      -2.352476039294604     -2.706769580503522      0.444335899032140
O      -1.257360980058609     -2.534626829013633      2.874188329340776
C      -2.194900899188908      0.966649908659966      3.715821139257526
C      -2.259075642461837      3.733366546892326     -0.139916891664608
C       2.109215071569206      1.341862716633028      3.137484328075061
C       1.781943733642663      3.676671864076426      0.233468629524383
C      -1.768984239878610     -3.671638037528965     -0.203209052265816
C      -2.060919137709179     -1.386498689550404     -3.078741104865013
C       2.305760168740296     -3.795882570260070      0.183875739062025
C       2.251808007506936     -1.003025212809651     -3.664241321619522
C      -0.167573208395097     -2.638756384605357      3.578083455185890
C       4.166706209136128     -0.243470819849342      0.159643300089233
C      -4.106437865231382      0.326127342984090      0.010920512452645
C       0.226254958620862      2.550674622517597     -3.563941344620375
H      -2.721780462967085     -1.816771224140330     -3.825554347717131
H       2.822268127299499     -4.757821742062897      0.202129381583458
H       2.752632605922950      1.773455818343895      3.898370002398385
H      -2.783361579403538      4.691568494474384     -0.152827618123433
H       2.686772109367816     -1.203554437674798     -4.643355362733806
H       0.274286545332756      3.189004345299549     -4.447828825119642
H       2.312667411559015      4.624130153447057      0.268240315976968
H       5.244298363032187     -0.187463669327096      0.276678473794170
H      -2.319342642092904     -4.608496152979823     -0.231863645439853
H      -5.189594047211676      0.382660637662941     -0.006251521100535
H      -2.671931020436073      1.195574581723824      4.668667647845290
H      -0.213947251008301     -3.296627340962768      4.447814475361570
Al      5.011977819001867     -3.013226868735002     -2.146107038626677
Al      5.871360856909074     -0.724280950563311     -3.099239109549182
H       6.308033728754840     -2.334074371069247     -2.959138572884200
H       5.291674345833531     -0.797330846324211     -4.593422560209901
H       4.579172523656444     -1.403276499680635     -2.278014826586066
H       5.491689135849271     -2.917909249512281     -0.617859181446375
H       4.094139042142682     -3.515987287954760     -3.362570434627715
H       6.715753383078327     -0.176993676749277     -1.849817534708467
