88

Zr     -0.295176673371142      2.057320022554741      1.582313138747553
Zr      0.533842513101758     -1.894891903180003     -1.851522727942348
Zr      1.399269207040645     -1.359397151209221      1.334139978510810
Zr     -1.364268862506301      1.635592447398715     -1.630854846450263
Zr      1.947857448085052      1.224356677694888     -1.693269586884736
Zr     -1.994804268981935     -0.883264656174725      1.151296292552841
O      -1.709517915343526      1.066955321442571      0.401976990539080
O       1.846229613424683     -0.704960105534657     -0.718252684965589
O      -0.277985594378492     -1.402561635693705      0.011682081476603
O       0.373962709482083      1.647112594062436     -0.392998520834663
O       0.188129680916110      0.208866774121185     -2.256875988251990
O      -0.212649858723528     -0.039902139620450      1.870704944177087
O      -1.458402288472408      1.808890613360008      3.175776244003603
O      -1.554720404538580      3.559013061082392      1.221376890638837
O       1.209574847788672      1.681016560926577      2.905601501582302
O       1.033716233662313      3.513612387672707      1.028876132836129
O      -0.620063512181960     -3.471410179616862     -1.158569737443289
O      -1.075434359363092     -1.852575888311602     -3.010307300946660
O       1.969511633683343     -3.214265240346725     -1.491392144004495
O       1.593834898856164     -1.617230050188180     -3.505105122915362
O       0.449431303211267     -2.837014157760251      2.254211820738989
O       1.654462754108240     -0.607327589687964      3.240513818718608
O       2.570040640183632     -2.828075635694049      0.726369737412041
O       3.154825145849228     -0.305563059895075      1.319144181722503
O      -3.389082259277099      1.625490096532652     -1.197115819746673
O      -1.485846127851068      3.548274357033966     -1.104956713884756
O      -2.211657658598588      0.175892992602570     -2.773212412860367
O      -0.804450114425502      2.418534719182284     -3.347253940030720
O       1.514074154330312      2.191195197607234     -3.372282895561802
O       2.119285938030715      3.176200248331993     -1.028029973837983
O       3.042130085080812      0.113507317599559     -2.919746865082413
O       3.518787373297017      1.155492359777858     -0.469334002929195
O      -3.588569361668763     -0.430185038346237     -0.062260247570868
O      -3.006750414125841      0.207565140936096      2.473099473954774
O      -2.310393584252422     -2.713553284496068      0.288327662351530
O      -1.690285851215565     -2.052079051702513      2.728818796773405
C      -2.568931095379930      1.137597946924547      3.270737422841687
C      -1.792923466493664      4.068741519292047      0.048396343939732
C       1.637480697541711      0.648969326085171      3.574650483359448
C       1.821848850066191      3.832068609748392      0.049854530248080
C      -1.718367622711118     -3.577006670557901     -0.477499162734755
C      -2.067907829594091     -1.042182433151057     -3.191424066917733
C       2.653737666163873     -3.447499808377764     -0.412266686761758
C       2.658082504879333     -0.884520268655691     -3.661392657686855
C      -0.668942992346471     -2.833900874718275      2.919725033637573
C       3.849675073013097      0.530650753667113      0.614596520731875
C      -4.038850528632747      0.629520569585752     -0.671489119803792
C       0.379064206441962      2.608075247532022     -3.848020473033484
H      -2.891508718190002     -1.437512695381726     -3.778154477755333
H       3.384935095610449     -4.254128833704604     -0.469594701771210
H       2.052671250636051      0.871634624731937      4.555551978658590
H      -2.288881715403072      5.041242045414316      0.030876459573166
H       3.298498348419687     -1.133179776696609     -4.509973186823254
H       0.423568040836992      3.169407653600503     -4.781739661966819
H       2.296294986926414      4.803316500244288      0.140815799416605
H       4.844874263946184      0.744954931813540      0.991446602640656
H      -2.212968318963511     -4.539864035677739     -0.550943907467449
H      -5.121148389371612      0.683196992424563     -0.768810894976521
H      -3.208076303457132      1.382620501118859      4.120536210428550
H      -0.766079877549020     -3.576030838996678      3.714299324405824
Al     -3.237173444161741     -1.775065471308544     -7.056414984384505
Al     -0.765849135942624      0.210545546493740     -6.099501137094522
Al     -4.654220249817629      1.003898825071585     -8.018272762952131
Al     -3.384066072800678      1.875294597450906     -5.241064086145142
Al     -5.858759402001375      3.126087027699029     -6.836376530673592
Al     -3.749668137930044      4.857141414420826     -6.019308764219656
Al     -3.688948914583078      4.460751971767881     -3.330101115419366
H      -3.967721099713458     -2.425122932660940     -5.795681457650892
H      -2.882209862793040     -2.880914306503112     -8.150618195410205
H       0.362838221479155     -0.315256676910299     -5.104442095604801
H      -0.132472122525907      1.056756952877540     -7.294199851711278
H      -1.858900227095092     -0.957896829244466     -6.581442138328983
H      -4.238709661210907     -0.599769978725150     -7.697044224883821
H      -4.627749796068697      0.936991749759197     -9.627438648598369
H      -5.885521804906519      1.438316648587890     -6.950261913405993
H      -5.195610358898057      4.665349183304387     -6.831700647362921
H      -4.927759863507537      2.445727051797002     -5.591547488032329
H      -4.720542120581899      2.687575046325236     -8.003037762377552
H      -7.015401306385805      3.533208614508482     -5.787691243050659
H      -4.093019250460840      5.537023629363242     -4.538195796744940
H      -5.178936103838238      4.082964178201210     -2.875490073089405
H      -2.155451486840530      4.903503992690467     -3.166329981920622
H      -3.401414563095481      2.908831946568497     -3.912642532412238
H      -1.839763429874682      1.213808817971350     -5.303710852691836
H      -3.507220343607747      1.247714854789059     -6.796300126102533
H      -4.044935554514427      0.587839732282716     -4.546872460501970
H      -2.963031716373759      3.369557714900180     -5.889003004631644
H      -2.771870642317236      5.817782116380966     -6.857094681314786
