88

Zr      0.239532344628950      2.068296968817504      1.142226419406451
Zr      0.332388125183818     -2.396613269177547     -1.640636029067772
Zr      1.725217771601876     -1.623546330729181      1.395287084046529
Zr     -1.182918526801224      1.288984011551690     -1.881199482710752
Zr      2.095386031053063      0.491405997687177     -1.924921846014187
Zr     -1.557013142311114     -0.815795920169921      1.435018806228672
O      -1.386430120563421      0.996679897190646      0.248800964945131
O       1.943913298338591     -1.318374924568052     -0.731289106218597
O      -0.065625121651923     -1.977130543037329      0.387445167324458
O       0.612179260989945      1.656673525327976     -0.885878849054142
O       0.154047177618832     -0.348580128188941     -1.897233793589307
O       0.386437766996116      0.016880054247333      1.427915873521377
O      -1.154479667964791      2.461904345708532      2.479425979540596
O      -0.436015609963887      3.744742185076896      0.311788342083690
O       1.333618983662985      1.701321202163441      2.853697701909633
O       2.073415776457940      2.848969992503988      0.655590070890483
O      -1.517185253835022     -3.139088134183961     -1.196572306104831
O      -0.695177704882088     -2.027336813163806     -3.388820375213440
O       0.974686698012781     -4.077767367003784     -0.787427797701927
O       1.766037367605037     -2.817179603798301     -2.924796464341153
O       0.871138908475869     -2.877799259907850      2.685913797850307
O       1.970334028279763     -0.543749775023665      3.147044061134363
O       2.554652706627323     -3.318877497391045      0.753747421800718
O       3.519613237664529     -0.812969005188109      1.183754642419393
O      -2.985581922572387      0.495884380788205     -1.652598322287401
O      -2.002206496037696      2.989958526530803     -1.245201220909660
O      -1.424758171493198      0.195499433338560     -3.626931924031642
O      -0.340767311333079      2.531898157742851     -3.186691848111691
O       1.597939132965483      1.333359292435101     -3.653200353419670
O       2.776990882965461      2.410813484084742     -1.545106626211395
O       2.959474610426748     -0.826115742670155     -3.114273735995690
O       3.804905258064797      0.299959352756602     -0.852682009094584
O      -3.290625098558753     -0.570003228943722      0.406771521274868
O      -2.389337934883173      0.495439325052580      2.659370512299077
O      -2.247555584262624     -2.719379617536887      0.999335226017794
O      -1.073878541743087     -1.689253214537015      3.153274514815650
C      -2.115080192332911      1.729582070009813      2.955015899037650
C      -1.439473887817064      3.899391014541733     -0.502977154272705
C       1.881854655581650      0.706437777992877      3.480299904927088
C       2.751286387625496      3.076214346670411     -0.430687529631847
C      -2.209968735037927     -3.373748866023612     -0.121565364398456
C      -1.280506701180057     -1.040176081582523     -3.992823666696522
C       1.991520276435383     -4.228850453877089      0.011994700878202
C       2.726842164590547     -2.075317295641939     -3.384162911201109
C      -0.201542229166359     -2.628817950714028      3.378528481331928
C       4.198592656970658     -0.169138337384786      0.288816836416184
C      -3.684262603188030     -0.080559041722836     -0.726388743926551
C       0.717170257861983      2.261554278087432     -3.893862891977565
H      -1.701889049365367     -1.282729919346963     -4.962486123799655
H       2.421801388393527     -5.230949952160070      0.064826436530907
H       2.319370126966839      0.956469240414337      4.441010294369147
H      -1.856804660969357      4.905810497856894     -0.570946044760386
H       3.416813669593214     -2.559478884142893     -4.074991078299781
H       0.867353917005860      2.865396127321964     -4.791178434170566
H       3.401157373092389      3.946902218376290     -0.397342984973874
H       5.241877428512603      0.006553799592843      0.534274379665988
H      -2.865215047561491     -4.239570462524845     -0.172728965024609
H      -4.746133813739167     -0.177963725646131     -0.933789852033651
H      -2.765576168966898      2.204742780976538      3.689058524892933
H      -0.384220713949946     -3.269247202768643      4.243942169114825
Al      6.548735723012151      1.992989184002737     -1.792239864239652
Al      6.210938541527383     -1.250771748370282     -2.476925764948673
Al      4.564131805375519      2.935266846005256     -4.178884655992564
Al      5.158484898666911     -0.003748111192057     -5.276762655414651
Al      3.677713428006834      2.444961216189477     -6.707718888924913
Al      2.248064152710511     -0.001548366362962     -6.463706615146274
Al      3.871511352860914     -1.872855557760630     -7.580742902046004
H       8.104263091425748      2.344946076046378     -1.758733897243310
H       5.852984200218981      2.442659582302466     -0.427887458304081
H       7.624933804732296     -1.976717073227605     -2.608817727215987
H       5.210287255935857     -2.092203661303097     -1.560429095033326
H       6.390895879854988      0.341504848896037     -1.999014220271112
H       5.811434475477286      2.810752278201365     -3.049800463223218
H       3.736645956373631      4.084071459194851     -3.407192487057448
H       5.012922533709882      2.960265197139867     -5.803947475026924
H       2.239450790102778      1.607151846610241     -6.912129597149412
H       4.741596267540134      1.155826242980130     -6.421997778823767
H       3.207941612273792      2.554253428007364     -5.095491847716888
H       3.498694231617699      3.131638109481664     -8.155546483413550
H       2.427922789003684     -1.050106849841794     -7.743404593789949
H       4.594896922120667     -1.095758244354274     -8.782708636534339
H       3.384141023455206     -3.088115504807119     -6.653609959963799
H       4.907033641819135     -1.188814680529408     -6.443703179116795
H       5.532140175752752     -1.003327124904557     -3.982134796219909
H       4.887066125438551      1.268346119535826     -4.209095237664678
H       6.726435448812791      0.274049548526638     -5.483857250766595
H       3.489162871476045     -0.209910892953309     -5.342182753711247
H       0.881057002093192     -0.337399112132289     -5.689083414411234
