88

Zr     -0.276570952803239      1.859552746809624      1.608376351754161
Zr      0.461094599863214     -2.216626741041515     -1.566508645930245
Zr      2.124519267309036     -1.291299183400652      1.282619267369360
Zr     -1.962204997616724      0.887908548159948     -1.222850674836243
Zr      1.395340929977370      1.002109145594609     -1.860794080329422
Zr     -1.219750168156368     -1.365792129844150      1.920919242824771
O      -1.533080398239046      0.422783712231064      0.768111372719150
O       1.713892772374158     -0.793730528050941     -0.709228748713914
O       0.294583242881886     -2.200749113276742      0.598949300155659
O      -0.139252780607032      1.822260649675800     -0.555926174208437
O      -0.288051789396931     -0.240860556332882     -1.673803142435160
O       0.470597725638450     -0.128782901963084      1.716230276623202
O      -1.633745697060192      1.777830727883789      3.069685601422307
O      -1.402452923924508      3.395196917261121      1.040885505427573
O       0.979511955526899      1.652240627263356      3.245053037414824
O       1.270275085444605      3.026840453900996      1.164086026884897
O      -1.174884856922928     -3.268579425416776     -1.173086387652342
O      -0.740004798160678     -1.997943002816901     -3.250146911640279
O       1.560686316349632     -3.758058153646971     -0.990973668180442
O       1.853741673072908     -2.157217556636205     -2.995233499897354
O       1.873810179472672     -2.566393500462315      2.762868068604361
O       2.575551220282597     -0.031302477316936      2.859644656157462
O       3.119755406642828     -2.786503651130194      0.444263646095549
O       3.695813872660100     -0.187526695908643      0.542796470899081
O      -3.530685864053744     -0.204368033760534     -0.442965698946486
O      -2.948081302110960      2.395037672439115     -0.392332232935040
O      -2.411981727939382     -0.412488136788902     -2.773473436269364
O      -1.734764998894825      2.140383866562810     -2.723773781831159
O       0.564599487880147      2.361421880184529     -3.031092469513414
O       2.194396208607344      2.610765249060546     -0.941791768983256
O       1.692469118620767      0.083198219043790     -3.601401604856320
O       3.415588937037278      0.586734015926618     -1.660294203251069
O      -3.241452570862067     -0.889172678244590      1.788993126980345
O      -1.435018367399298     -0.458736768783286      3.678991992869487
O      -2.092791733805874     -2.883229244895080      0.941633298692717
O      -0.428239791375348     -2.775727041662229      3.051667030458344
C      -1.802313525930877      0.774178579128897      3.881567143067167
C      -2.514020197628437      3.359376903216011      0.365811503141755
C       2.056899371887682      0.974663570638118      3.493818779880637
C       2.054740087837157      3.271936206482927      0.163139478893782
C      -2.082555671606492     -3.378735145236659     -0.255129502813716
C      -1.861243611572220     -1.376349177420945     -3.446616442630948
C       2.679413023094324     -3.737979217239330     -0.326534558491213
C       2.058881163757678     -1.151278276046581     -3.795256600236108
C       0.810036115019321     -3.063935437345923      3.317194084517787
C       4.101691728623413      0.255024879683464     -0.609689995191842
C      -3.933648227307533     -0.547351286711298      0.745056281701562
C      -0.677363606599603      2.641695842649124     -3.286734071705869
H      -2.421201702859852     -1.705732312302628     -4.315937484805004
H       3.316627911251905     -4.619049411533278     -0.422943755983927
H       2.603152420820621      1.289580819872219      4.376652606089249
H      -3.155582026349490      4.238597672325383      0.444432607554920
H       2.586048064721876     -1.366188093864017     -4.727450408531330
H      -0.852395467675391      3.385746163083205     -4.063863152440211
H       2.693377512914815      4.143991556598486      0.271028532204643
H       5.177571614374648      0.370543530802320     -0.706774815964347
H      -2.955970382854706     -3.965777717334900     -0.524323706028620
H      -5.011584210392075     -0.566432424086465      0.881009834504874
H      -2.298246563754060      0.989091271421935      4.830994046347703
H       0.975364243538077     -3.810145325080757      4.094696296974074
Al     -1.735307987492192     -5.873457309764656      2.827978773139936
Al      1.432115182967598     -6.453129079513331      1.999536106404324
Al     -2.804553272494578     -7.418174972155303      0.137068360962031
Al      0.024451027728626     -6.440450928390095     -0.826114770733562
Al     -2.724201800416529     -6.678411086945664     -2.484296843438384
Al     -0.352115324736009     -7.778184785029685     -3.598350371997083
Al      1.140061613016892     -5.508492853354271     -3.732616091709811
H      -2.286107764271208     -4.385025499642671      3.000064604478300
H      -2.004523069820344     -6.691774794834579      4.171067441708365
H       2.478495433633868     -5.265862814761332      2.200785086272758
H       1.915199407811435     -7.782494544038598      2.737304343321137
H      -0.098413837334044     -6.019187229461523      2.515920040880274
H      -2.595095080314833     -6.593986339712505      1.590851783585599
H      -3.808782257970636     -8.586751070652834      0.602120306867201
H      -3.085318338090422     -6.144447738509174     -0.924676410443449
H      -1.969748850968058     -7.411303839060834     -3.789249572894492
H      -1.323079165876569     -6.058516391934015     -1.757737050450377
H      -2.584992299873498     -7.992710183030454     -1.431584626789973
H      -2.938229167377386     -5.200516069750611     -3.098149700458619
H       0.600323314016043     -6.834871942762635     -4.587466819580397
H      -0.102919811848248     -4.525832917971962     -3.982700074587449
H       2.689099934297080     -5.903150285549950     -3.608409749307822
H       0.884134270597164     -5.725904908194207     -2.085093990402283
H       1.180010255414260     -6.716203062613605      0.366761322234512
H      -1.115692740408177     -7.292335436849966      0.073320870525478
H      -0.212502115473443     -5.104734823346963      0.030900436883621
H       0.153755870396794     -7.652609865770628     -1.990534675923999
H      -0.137250504164814     -9.309913317486833     -4.033170218141117
