92

Zr     -0.415193719958856      2.121699095178774      1.473109511042453
Zr      0.596272041171700     -2.179205412202261     -1.321921149384128
Zr      1.714026873734724     -1.182468247218742      1.753166385460751
Zr     -1.528950387547255      1.124539076106573     -1.603319181186508
Zr      1.888174182644658      0.985208717601822     -1.519473205778445
Zr     -1.697736303564660     -1.043304350881943      1.684354732156048
O      -1.646279054701370      0.729511248114353      0.499623409845751
O       1.840213553300552     -0.797017968327005     -0.347990140445214
O       0.028949699366438     -1.865070793926690      0.707049910469996
O       0.157530631318872      1.799490295437736     -0.550179589427920
O       0.157299883834422     -0.151850597574321     -1.846297378307763
O       0.032823866472414      0.094164247359908      1.998606393220439
O      -1.400111272348079      2.074440015674373      3.177584767672202
O      -1.858129616868216      3.367118668211560      0.945827987492337
O       1.192787003204241      2.104042984361378      2.773176112833977
O       0.773462323634101      3.665211019088771      0.874753696800441
O      -0.628002921222636     -3.703259201533721     -0.742277930981659
O      -0.986657105162345     -2.150560413278269     -2.658809729777945
O       1.991174215088846     -3.464463708764735     -0.776903160802199
O       1.626099765171057     -2.138255418319167     -2.998463786159558
O       1.062363363396879     -2.452130137123016      3.122079732028542
O       1.996480323098339     -0.008719119968260      3.400405142815521
O       2.854626064494359     -2.706644651265042      1.247612183006419
O       3.448591225784461     -0.127123668951474      1.376694238133473
O      -3.254963121807141      0.047686648484935     -1.214707971339320
O      -2.704327986399387      2.619904097360456     -1.090772675845117
O      -1.817105374803023     -0.037706155899648     -3.252334856795124
O      -0.869324296550466      2.418141185226177     -2.944911945022467
O       1.456532936370798      2.368953702377077     -2.852116372723244
O       2.443743996802672      2.660083761659583     -0.429917264051035
O       2.539358392296440      0.000324267853003     -3.102900958360839
O       3.767134064769766      0.598770630201403     -0.831119237348868
O      -3.579837180872078     -0.632992160659986      1.007476725003273
O      -2.328031528667139     -0.058192588005383      3.277432042406090
O      -2.271383582561679     -2.706750006462484      0.600619753411867
O      -1.262835791983522     -2.427811572096566      3.016607733925503
C      -2.125344489357748      1.144970502419008      3.720667959782243
C      -2.665722984400111      3.420161698344729     -0.069375173169565
C       1.815375337960049      1.267044309875969      3.547435605208218
C       1.911943806365426      3.627458771893526      0.254790532938164
C      -1.757436534809981     -3.666784925760666     -0.106747501839122
C      -1.659284619076876     -1.317204998108043     -3.394025468005838
C       2.785924622624086     -3.530812820120793      0.247114973874196
C       2.360515832066651     -1.211235825292960     -3.533233643881092
C      -0.123392044370409     -2.831755326686441      3.489132275127429
C       4.137705753527115      0.359226748884821      0.388668121121728
C      -3.960522995357263     -0.358939879138107     -0.202035648787718
C       0.318615008706575      2.790507106349356     -3.312778629626297
H      -2.163316040778652     -1.755508726710031     -4.251165388753797
H       3.466862181923181     -4.381188734565344      0.269054353597530
H       2.251521850989478      1.699098087299818      4.443849397029176
H      -3.397109268974252      4.228179171223515     -0.061615151703903
H       2.882619124320555     -1.478812827259390     -4.451844722252345
H       0.365697449382364      3.546080619171345     -4.096848489731920
H       2.507242296705350      4.534279946609950      0.319746678845423
H       5.170029883282633      0.609309405950660      0.618484910962109
H      -2.360906270271751     -4.567459112432000     -0.178239048462823
H      -5.021261556308763     -0.493395733288737     -0.397343150028294
H      -2.618296245481199      1.402950585637059      4.657773885364766
H      -0.167089009458841     -3.577245472650685      4.282760486917165
Al      6.247126705738252     -2.598992089120039      1.117706773287507
Al      5.647016965810502     -5.497757386224300      2.233306566758326
Al      7.792823262102385     -3.293715195931910      3.216516496745842
Al      7.604774863114773     -0.138672771109980      2.551274842035084
Al      5.864435754765954     -2.798295411712179      5.829813974081147
Al      3.413406529140840     -4.326852331713148      4.281623546412222
Al      5.037422488847890      0.095040671714775      4.519221186709639
Al      2.898203420747891     -1.734551297710668      6.125079900797087
H       1.889194363759504     -1.411626038782947      7.317453133902981
H       4.419468896049467     -2.310247630124951      6.535676202078747
H       3.691949236218040     -0.489550484959442      5.335266477496338
H       2.701529230811528     -3.126539944389856      5.214997310967000
H       3.755923786373380     -3.130372857916170      3.280697510310626
H       3.144359290535633     -5.478253995351204      5.358217402205011
H       4.356310327205564     -5.270568705760722      3.269070803463876
H       5.887251507651988     -6.921363765588021      1.555463385957221
H       4.812891114524789     -3.873734681857667      5.079521948132031
H       6.924854163959091     -4.732679659175512      2.999388515894863
H       7.077371071561053     -3.159462297518587      4.737345610342479
H       9.281069189428218     -3.840138953403287      3.506421101170877
H       8.064282402723661     -1.621066834209608      3.180991133445312
H       6.415552821914991      0.369688299052453      3.608312569257826
H       8.719077761583733      0.879082608389965      2.034668496943627
H       5.491515402887188      1.029700561749223      5.734693295821012
H       6.589886769464001     -3.112171937509208      7.228863085675477
H       5.776007341888056     -1.242360251822017      5.201402054079263
H       5.408660771187323     -2.216608276206570     -0.206727232388527
H       5.657318942884262     -4.183760193779865      1.193469668124361
H       6.799002097815057     -1.019834279790933      1.375562598666613
H       7.777255391827302     -3.184503156155373      1.525548079624193
H       4.573477915018064     -0.823909329568888      3.297915600766618
H       6.260664607922469     -2.707303473107364      2.802580948932667
