88

Zr     -0.703129747658584      2.404904798795468      1.387863607958488
Zr      0.366188723202620     -1.799082614503726     -1.362961032798946
Zr      1.628139611407265     -0.735701901469927      1.624746147069096
Zr     -1.960010624971883      1.375637615354437     -1.594956127585335
Zr      1.466060503523631      1.372941155148988     -1.753872955106916
Zr     -1.800181572076915     -0.762587325968453      1.766374330624948
O      -1.710478667527843      0.838732183463021      0.388489037967009
O       1.390337834193595     -0.236202052626427     -0.376326708497500
O      -0.108418724499130     -1.642959473958254      0.752310488263004
O      -0.212064607968210      2.261381042167550     -0.723842831689278
O      -0.245706539596451      0.194314784136285     -1.924384687276186
O      -0.092875251662358      0.420884218315663      1.954958087564417
O      -2.192545633357238      2.376796490688144      2.701030209417367
O      -1.728233319720323      3.921269212554317      0.647868625898514
O       0.414822738299849      2.433134822695155      3.131354273814948
O       0.890111144979228      3.605044253229032      1.034095984044538
O      -1.183837795624727     -3.049018280819705     -0.976011925690331
O      -0.799888955784648     -1.820448675133815     -3.074135313185019
O       1.434124365942604     -3.296416822992943     -0.636643013339756
O       1.833318054741893     -1.772504856466530     -2.704411984868830
O       1.073688647007378     -1.455474626867888      3.392995376293023
O       2.159825746107045      0.907279706019180      2.734281301125403
O       2.339686889664312     -2.556970043540230      1.377881813757360
O       3.469420439685494     -0.246999409003191      0.825208565450679
O      -3.806983823511036      0.970588903768823     -0.772050234028942
O      -2.607590223711285      3.225222374114494     -1.393508766116067
O      -2.526803996694340     -0.281928443638511     -2.647580579118651
O      -1.401563757666748      2.049222991836607     -3.382987552595021
O       0.796533202613666      2.749039163816741     -3.030516218749876
O       2.241700235872313      2.884457487884386     -0.732306170460627
O       1.894844523184368      0.429158142392378     -3.454775106737394
O       3.384845031498497      0.724734594707151     -1.315029148737934
O      -3.716311987146423     -0.109066215470801      1.315368344240641
O      -2.250464788611525      0.179140715997310      3.461837837384166
O      -2.561186247269781     -2.289994738345376      0.754842101263024
O      -1.134762545017119     -2.128915448271953      3.053458243583269
C      -2.509337455928618      1.450119464064483      3.559471428001755
C      -2.399881041087046      4.092648831081268     -0.450861116319863
C       1.552807437397402      1.859493478696395      3.378807283094479
C       1.918053645304278      3.665769532471378      0.248186817123291
C      -2.200373250585941     -3.115975145140286     -0.175636948919245
C      -1.935305484156357     -1.234650855742082     -3.305666809450808
C       2.153489043499016     -3.430645265685196      0.435858713714046
C       2.133975182777168     -0.844819289444923     -3.566850664482765
C      -0.009805273746678     -2.104595173429385      3.707800146685446
C       3.974045008044682      0.251695484170839     -0.261027050056384
C      -4.307966454850060      0.432073197920975      0.296251510586326
C      -0.326741965748838      2.718035313598159     -3.688216801959068
H      -2.477247091962373     -1.604799550525964     -4.172202118875246
H       2.659997174144507     -4.387750284259051      0.559037281575265
H       2.081214145172694      2.239207511793929      4.249412779349665
H      -2.838383315927953      5.078795382068476     -0.602532754578397
H       2.648613635886171     -1.168271621466575     -4.474074905060346
H      -0.371664893058859      3.319445438314127     -4.598345864214644
H       2.607858086763633      4.482594052651626      0.439274881308489
H       5.058204060011764      0.259562414608875     -0.299787477302349
H      -2.846504057690731     -3.978538545831081     -0.312041166452925
H      -5.391122214822582      0.451072635048471      0.352424178279558
H      -3.065388344354186      1.765762289183080      4.444700179223870
H       0.029669907811084     -2.696354486044403      4.624199076214424
Al      1.649642599518524      6.032530358265205      3.236378043074231
Al      0.044621246944037      6.723021162862350      0.398053717182451
Al     -1.009185941265144      4.873379499203249      4.696993252179753
Al     -2.504906414880453      6.486346768438213      2.384324243690335
Al     -3.706589700380005      5.091666613439022      4.999130534122513
Al     -4.732351770921928      4.273421515642460      2.476242243487336
Al     -5.533061211131400      6.566747100784796      1.253240373445054
H       2.419798496685289      7.340216838183328      3.726784170522413
H       2.658557918876887      4.800836256697089      3.118178812276866
H       0.329278669464004      8.214606134735369     -0.090848036581698
H       0.191098018264304      5.679898405402188     -0.802158846188431
H       0.955392242425056      6.348856200917560      1.749319104863567
H       0.461119296426944      5.616604304721784      4.335104143031749
H      -0.394043844824674      3.559353987558394      5.401013336504488
H      -2.230497738397519      5.854037229387542      5.322574675088009
H      -4.693127158979309      4.050483795863132      4.130302866096660
H      -3.364615255221892      6.252937422900468      3.811734055241226
H      -2.469791208651337      4.064619162650429      4.501099763821250
H      -4.834221422874896      5.267419647649163      6.138429178711035
H      -6.051097131313037      5.140647455944950      1.949546846889454
H      -6.091260988499543      7.492942743032520      2.437378854621175
H      -5.251208259733446      6.054563353402518     -0.240894254466758
H      -3.939635421300807      6.947339137943684      1.636947072047789
H      -1.484683959828710      6.599001951749184      1.056955842384202
H      -1.342121566534720      5.567706064952939      3.183310459720192
H      -1.971698972773467      7.917308267820238      2.881629170536062
H      -3.302754994433351      5.047003129070541      2.031572527812378
H      -4.706190295793152      2.840335361369593      1.749729136777893
