84

Zr     -0.202415253637530      2.247211526064767      1.313489029297281
Zr      0.202996236641942     -1.751173189227113     -1.852452483804653
Zr      1.548655460061227     -1.229291336140432      1.248908308968764
Zr     -1.490714509138261      1.802983250989763     -1.790202429675015
Zr      1.874089258534878      1.154530778921183     -1.944933559081004
Zr     -1.841031594246491     -0.760383786075968      1.257596466701234
O      -1.511407545626031      1.058971674678361      0.169940000269189
O       1.427921125296006     -0.442473972520911     -0.694470014905512
O      -0.239750608585746     -1.719189083127494      0.249028059555863
O       0.338080349257199      2.186664131630362     -0.794631136758614
O      -0.023090142962622      0.361705180318702     -2.322980310228281
O       0.004016478296451      0.146828770075368      1.662562028495276
O      -1.775667098283289      2.358281085637482      2.516873104557599
O      -0.860389998117860      4.019094639895945      0.725331079954125
O       0.803656275814323      1.893085459407640      3.084552237865078
O       1.611375752922824      3.128461552447279      1.113297938665673
O      -1.043013412944046     -3.306373455465316     -1.348463178746303
O      -1.536200847981441     -1.468404748590870     -2.920536780101043
O       1.650305535732473     -3.064608012213254     -1.506397266299378
O       1.006223856396281     -1.692415713572521     -3.652550257606717
O       0.829880792017997     -1.996366683163587      2.933817752698582
O       2.314848213899818      0.186523101019501      2.498380186579148
O       1.895522982111277     -3.137572051307205      0.808447137635541
O       3.450541290193510     -1.069180237285465      0.498281027125312
O      -3.423342058381991      1.200096236072453     -1.286502291590351
O      -2.207238299986978      3.510952270470957     -1.104137048415290
O      -2.177721165703737      0.738576820921717     -3.377002119477834
O      -0.704039741953328      2.984856106136387     -3.167536610327536
O       1.612810523806028      2.788684074399401     -3.016953492416206
O       2.864620686291353      2.364007453945637     -0.706198589687082
O       2.182055310567658      0.318269824842106     -3.719230229689131
O       3.612493510226295      0.104592140931518     -1.532942717769104
O      -3.643542900621281     -0.009995825506495      0.712183332108551
O      -2.303329088864484      0.135494719732627      2.971678899865447
O      -2.610849736966762     -2.240588106397130      0.045880239396730
O      -1.440744178127772     -2.284264292597191      2.472882872531869
C      -2.340392702300040      1.413462369158754      3.210400688790040
C      -1.758466442358149      4.298685773390233     -0.172481225382833
C       1.823719086777638      1.110367342454557      3.272687851974700
C       2.649338817626614      3.096162727919586      0.339721817924387
C      -2.162101332751202     -3.211961767266546     -0.695192269242887
C      -2.213908129975074     -0.547735033444946     -3.536107832017784
C       2.003915959625645     -3.632855821016789     -0.389627406876788
C       1.783031143809851     -0.815081879158508     -4.212902357644436
C      -0.350704863444913     -2.500117634923672      3.150851850976325
C       4.071136242617269     -0.573425968614272     -0.527168157236383
C      -4.082732828785202      0.628563857685091     -0.326541035465646
C       0.515433465143604      3.328461204964966     -3.454500022332103
H      -2.908698785096216     -0.909125455954273     -4.289319937498598
H       2.450749788209986     -4.626063099062765     -0.467248203198081
H       2.352181703501936      1.258176288158269      4.212041033809074
H      -2.181686798724582      5.303794392634551     -0.139506774823808
H       2.132033674798246     -1.052976728594983     -5.217944599747956
H       0.630944635917669      4.159460699621914     -4.150433064837767
H       3.456624212442084      3.768537213185517      0.613735605851650
H       5.137470511090039     -0.771367657396214     -0.556605370548522
H      -2.824793331867737     -4.069621614761160     -0.786583880245802
H      -5.163029565399810      0.700877897772735     -0.401549942705509
H      -2.911423694783206      1.727789859204075      4.086067924366477
H      -0.436926649596612     -3.180827046752804      3.999833232515778
Al     -4.058966130076671      2.434317136182016     -8.245151428253436
Al     -2.969737302818618      0.237589958141546     -7.122099964213393
H      -1.388420871114000     -0.049785624049998     -6.637735860770584
H      -4.115040775621012     -0.632709155962209     -6.390345334956529
H      -3.390492049137338      0.943693505676448     -8.584169414144109
H      -5.550941755196808      2.027580916209779     -7.819255192988394
H      -3.622190046244075      2.989721824469063     -6.727168343616689
H      -2.809487570527721     -1.129793980628160     -7.955805121441748
Al     -0.711918904574257      1.431498041714689     -6.279930756549759
H      -1.896323185624813      2.423250205209921     -5.628956345711977
H      -0.120975739058035      0.981598945706506     -4.861073715321298
H      -2.924313192809237      3.314190766444243     -8.957807428762424
Al     -3.163690321597830      3.437851530577353     -5.172081181612446
H      -4.151937181472572      2.079693154649535     -4.899744748340490
H      -2.065185474001328      4.588761468724611     -5.439851961034874
H      -0.495347031042361      2.182870071567584     -7.680275520460093
Al     -5.482709943533386      1.437924196418393     -4.085660533340748
H      -4.932760975437084      0.201839405040274     -3.224585053101248
H      -6.651533927276646      1.748729793746780     -5.138765419195857
Al     -4.863889515414557      3.889254595469460     -3.136197575589176
H      -4.744616690600765      5.074849249535155     -2.054814873619335
H      -4.654351063545787      4.134990961469271     -4.790609714658912
H      -3.350439523707925      3.260243765155037     -3.507491844710533
H      -5.819658339590853      2.543096934586839     -2.876296596485597
