64

Zr     -0.298126162960114      2.173649395591517      1.440439267824758
Zr      0.327802634797406     -2.145038305251984     -1.427683170233323
Zr      1.677832356699372     -1.236206608588081      1.585349532632993
Zr     -1.648739485915332      1.258196993147960     -1.564705189998006
Zr      1.760002017091677      0.949711603287951     -1.697655437567485
Zr     -1.724174065021112     -0.929275420359368      1.708564412123951
O      -1.660295222296669      0.855594758159705      0.541423469778493
O       1.678405638669504     -0.820804229636936     -0.518319641454452
O      -0.098292661928584     -1.825303585548855      0.635339238272491
O       0.133214264039525      1.832904878773305     -0.614648963507058
O      -0.043157626563081     -0.094719450748069     -1.935623767653269
O       0.077476649672564      0.121816265134529      1.926666914723112
O      -1.208315197117995      2.164928037899637      3.185749341913924
O      -1.692033783800459      3.507327913208478      0.994603117699328
O       1.363421108159765      2.064397862506722      2.667030567782934
O       0.936814605294106      3.650696259338370      0.777621543969972
O      -0.894710056656191     -3.636129593472152     -0.766352289490902
O      -1.368071384254788     -2.035259138874920     -2.615600366969235
O       1.741490987841716     -3.461202040081806     -1.006651743633958
O       1.196780571128849     -2.135259235878573     -3.194558171331575
O       1.035463829351779     -2.488398536912660      2.975437218756846
O       2.123240839185820     -0.088019329235848      3.210207196401551
O       2.721452333017831     -2.800431788070023      0.999371227199677
O       3.441450520552914     -0.279154362297736      1.094019520498110
O      -3.404757478510629      0.271948450960048     -1.073568113084873
O      -2.713427192937939      2.808143816823125     -0.977414523633010
O      -2.104409114030646      0.116976622044156     -3.192084871340105
O      -1.012700422638469      2.524589220683612     -2.941880458963127
O       1.306907203614337      2.340690279893493     -3.015608357252457
O       2.455292090235695      2.601966085555555     -0.670362527904714
O       2.268113647085132     -0.071821895726815     -3.314677031255749
O       3.651275833631126      0.452580256016257     -1.124858264125701
O      -3.621921775088702     -0.428253822160554      1.155497071287166
O      -2.205154941198328      0.067161622360331      3.346036195695337
O      -2.434416788227260     -2.554776152558434      0.635594743617090
O      -1.289018976601477     -2.356742827804360      2.994500433642584
C      -1.934125835309819      1.262888151091967      3.772430956924865
C      -2.563058690285937      3.604269150221749      0.036755699452401
C       2.014938443022944      1.193375932394841      3.377194385399715
C       2.004697557315533      3.587645383221457      0.045046182571406
C      -1.991777100348977     -3.544411908560700     -0.080476912999534
C      -2.033165298171461     -1.171627617250102     -3.322830191145353
C       2.587918841231338     -3.580337008021289     -0.029594010106334
C       1.953947714029405     -1.248368311369053     -3.764623547535082
C      -0.146099155447596     -2.821725360008176      3.397576524878169
C       4.099959768728701      0.080346657013921      0.033302480966059
C      -4.064108672314860     -0.117794142042952     -0.023852514968914
C       0.165022829198564      2.825555530845366     -3.397237178232930
H      -2.616237591589007     -1.588870077644993     -4.139569628226518
H       3.266906677761978     -4.431160336165382     -0.081382108733834
H       2.549698254611779      1.596302503749122      4.233028614326495
H      -3.247765393448611      4.450349328834506      0.091749664911711
H       2.372769498659212     -1.521871724007588     -4.732849630620399
H       0.198960480719229      3.573882513194246     -4.188726122753855
H       2.610690777840616      4.489311899812514      0.030487936808964
H       5.182224699738268      0.075278050136977      0.131702747661653
H      -2.634309010889130     -4.420303158306006     -0.112132170820029
H      -5.140181589239358     -0.199089253405546     -0.153168282349270
H      -2.362622149668083      1.539808693063555      4.735411239962214
H      -0.182429945693644     -3.580852530034185      4.178663719268124
Al      4.865252876346325      2.894596586946116      2.060264550316521
H       5.113955186272458      2.911995148425496      0.483034401215195
H       5.066600528457085      1.501087879490571      2.813640511834518
H       3.720225829222198      3.849965909522894      2.630980303847356
