16
XYZ file generated by Avogadro.
Al     0.00000    0.00000    2.43429
H     -1.72081   -0.26466    2.47595
H     -0.17568    1.24690    3.63727
H      1.72093    0.26482    2.47910
Al     0.00000    0.00000    0.00000
H      0.22873   -1.19370    1.18745
H     -1.31483   -0.25007   -0.87278
H     -0.22461    1.19499    1.18870
Al    -1.51243   -1.46484    3.66166
H     -2.15564   -1.05493    5.06457
H      1.30715    0.24986   -0.88184
H     -1.95517   -2.91460    3.15920
Al     1.51032    1.45843    3.67073
H      2.14416    1.03602    5.07433
H      1.96101    2.91024    3.18217
H      0.17272   -1.24881    3.63665
