24
XYZ file generated by Avogadro.
Al    -0.33491    1.12824    2.78878
Al     0.13157   -0.23788   -0.05444
H      0.78937   -1.57375    0.56170
H     -0.97265    0.49405   -1.39051
H      0.59826    0.61265    1.41769
H     -1.61444    2.75241    2.15179
H     -0.50481   -0.41996    3.47629
H      1.67352    0.34516   -0.44475
Al     0.69535   -2.98674    1.48862
H     -0.07307   -2.65316    2.75977
H      0.00282   -4.24138    0.27885
H      0.73452    1.93997    4.17889
Al     0.59487   -1.54449    4.12633
H     -1.17676   -2.48184    4.88220
H      2.20016   -1.28575    4.13574
H      1.50589   -3.98312    2.27715
Al    -1.13198   -2.84119    6.09294
H     -0.86904   -4.21676    5.97172
H     -2.53164   -1.74599    6.61828
Al     1.21615   -2.47214    6.88586
H      1.60308   -2.96245    8.34378
H      0.94986   -0.62471    6.61914
H      2.20428   -3.60845    5.22136
H     -0.27404   -3.39734    7.67965
