76

Zr     -0.338189929844511      1.946054344002275      1.623565861456873
Zr      0.237466971620208     -2.222796933243401     -1.538095453776312
Zr      1.678485708048094     -1.493227384675564      1.486942633935025
Zr     -1.718359259199042      1.254888147591601     -1.440452975851723
Zr      1.638329557401775      0.859947040433445     -1.643005506233413
Zr     -1.707861722134798     -1.145076138845115      1.705245716438134
O      -1.723255959764867      0.734062069980233      0.623319241410952
O       1.631540434443141     -1.005542321242352     -0.564920688947057
O      -0.140994087363564     -2.128184376683134      0.575965473888057
O       0.091243486753326      1.854527967092804     -0.486050097554937
O      -0.222378864973741     -0.166823723162562     -1.613386973846860
O       0.131452663540992     -0.108192442550682      1.707962532030537
O      -1.874832690866721      2.108302177699211      2.867384406962591
O      -1.161279566939532      3.618722769147632      0.898754159150497
O       0.660933638994488      1.526312822709273      3.382754833056736
O       1.401383539246773      2.890941823375161      1.399542617236322
O      -1.500600959167294     -3.161854311309945     -1.267361679096157
O      -0.767797757923118     -1.797389836207579     -3.296582634690895
O       1.083655106680292     -3.886572648217600     -0.833195810118145
O       1.746497876155886     -2.358294018433769     -2.830285012684493
O       1.128111360288574     -2.888233085061024      2.766392522660190
O       1.990305831410778     -0.406581870936669      3.202581851138893
O       2.651027889371463     -3.038269725091869      0.674112101723176
O       3.401598119260079     -0.485967781676346      1.043458663865432
O      -3.414897799133133      0.206784323674748     -1.095201188509781
O      -2.712866451339286      2.778502790613337     -0.628004211470734
O      -1.962656437919275      0.227092402272549     -3.216403734937726
O      -1.129399641276561      2.664800535530873     -2.693017279260991
O       1.163979147669284      2.313747234771633     -2.896740647810655
O       2.490365055396074      2.390707513621352     -0.608481054558026
O       2.021165615552364     -0.103906876029816     -3.336220364302005
O       3.561186183280435      0.251714154006220     -1.184192681958776
O      -3.614247684408680     -0.675526851714153      1.071118053761744
O      -2.315990798008017     -0.135096145301130      3.296697642301414
O      -2.462270908271665     -2.836169670583044      0.843035012559881
O      -1.136110797210245     -2.449549723170195      3.081223222055635
C      -2.478751298974141      1.140642922906079      3.490146981933060
C      -2.229626542928920      3.697687811798123      0.157935543160203
C       1.593602310134935      0.701813475379244      3.747823302961620
C       2.312354044194832      3.049311974465012      0.492676395096523
C      -2.321496325541319     -3.430683251193653     -0.300150635200260
C      -1.584787336493138     -0.895389090090665     -3.744436740285821
C       2.156324281144697     -3.962206617438828     -0.098718256783452
C       2.221700093563510     -1.374441825644928     -3.536290389262375
C      -0.044627335315771     -3.128343775544588      3.268695371264275
C       4.033629898508459     -0.139326524051256     -0.039341761430008
C      -4.065746071024333     -0.251047962458599     -0.068670127749368
C       0.049356124151209      2.919755064117154     -3.173809031015426
H      -2.005431215890187     -1.104959356434108     -4.721975754615801
H       2.703483523461803     -4.906330395711029     -0.135840131990224
H       2.106091850037319      0.968231413251626      4.666519462902754
H      -2.781264137467624      4.639162804900761      0.200346177901061
H       2.844439059658411     -1.643227267020181     -4.392008593564722
H       0.110720774813919      3.736174917242396     -3.893340832527379
H       3.035844724690787      3.834978571133019      0.688779670538070
H       5.118663290382434     -0.167673837569510      0.026593003503265
H      -2.995581120884959     -4.264035034747429     -0.477760662769525
H      -5.145074483004191     -0.298430680995037     -0.185718153261126
H      -3.186524341248450      1.429744044288319      4.268791976641425
H      -0.120556361183028     -3.996849660786159      3.922662283190973
Al     -0.731248492541250      0.005189422819190      6.363495095539192
Al      1.747776867344419     -2.151949367775324      6.181012317604108
H       0.662869155598117     -3.391526223028315      6.454480705492366
H       2.602910904921046     -2.361770633153970      4.849956636858199
H       0.630299279008499     -0.916215832083933      6.078491974170055
H      -0.675824782866331      1.414220401161309      5.617544933035676
H      -2.020292542820585     -0.947453511105731      5.897709225200471
H       2.699904859509119     -1.902831279131931      7.437541554271405
Al     -0.688599802673973     -4.314462291627962      6.785417024940180
H      -1.980834123361783     -3.442790649162209      6.187455577841600
H      -0.559795725490266     -5.704860330271377      6.012336468991233
H      -0.845397364928594      0.228008618346194      7.939005357723555
Al     -3.051968930514920     -2.249210745275282      5.724889549386413
H      -3.577220970691564     -2.447592384797586      4.230794286949802
H      -4.263456263674400     -2.118742160786374      6.754437559609371
H      -0.839414248499122     -4.520709923881514      8.361061527818487
