76

Zr     -0.246440860330447      2.288313128666499      1.322903287593600
Zr      0.286593361042195     -2.131145847667606     -1.450997677800024
Zr      1.894567330921506     -1.065935092286169      1.389022459926305
Zr     -1.818670979740001      1.250258480505494     -1.541471811843900
Zr      1.547045476463339      0.955568166484827     -1.949853277207462
Zr     -1.488310427168120     -0.809244891785842      1.815408251018740
O      -1.583248866852470      0.913240091376369      0.517422451556696
O       1.638430071080916     -0.757754143246834     -0.660125168224096
O       0.031823917438305     -1.881002128073693      0.687364924587017
O       0.039513087801203      2.049202077797696     -0.814911557592269
O      -0.266759337142393     -0.100409195178636     -1.737453953733794
O       0.314804012708570      0.259851053395505      1.624521670926879
O      -1.696863634241670      2.463414064000441      2.680104630217179
O      -1.192214373370237      3.858822602279551      0.559798064793122
O       0.870081839771783      2.105087224439143      3.062492428909651
O       1.444337842267870      3.240247248723301      0.922875641034524
O      -1.389420733505322     -3.105186430305862     -1.016534314661967
O      -0.842928930797970     -1.942756785123510     -3.177824691687007
O       1.219186901066574     -3.709526827612245     -0.688065999658978
O       1.725135175158117     -2.301209432943231     -2.824978203095473
O       1.459796410641683     -2.133590439166482      2.986206649932496
O       2.390739511488896      0.325843843717646      2.834535530943215
O       2.757638978990416     -2.740994371903445      0.773759660145273
O       3.615832308640484     -0.220306502007777      0.619303528466611
O      -3.515958930251041      0.331103881759326     -0.824580585448161
O      -2.734203563673047      2.880532506589522     -0.891590689385192
O      -2.279249348954589     -0.085142061389884     -3.050209646172035
O      -1.345742927824452      2.365280138020188     -3.098590048680039
O       0.980445536445157      2.335679406454784     -3.241990720144326
O       2.491065650836184      2.464821704965257     -1.016926217181265
O       1.763138611882637     -0.113637311011914     -3.616102210727065
O       3.508263669103813      0.328324762026790     -1.667145310927052
O      -3.447440078879119     -0.240983117345585      1.455894291266383
O      -1.781053968369108      0.272254649550868      3.458182407724971
O      -2.384577811311226     -2.415708329041569      0.982461955831139
O      -0.864758229718050     -2.137781007762618      3.142152057812651
C      -2.033801105739617      1.546862338679518      3.540476517766453
C      -2.279678899826151      3.852389295007177     -0.155126546433975
C       1.901969547708033      1.391496764249103      3.391028548477599
C       2.397335422392399      3.196099672943572      0.047749183212454
C      -2.249733051641574     -3.183748893902785     -0.051720672335279
C      -1.828118109184791     -1.190191041464743     -3.557972742257258
C       2.280981439702969     -3.721033854029675      0.063276508284650
C       2.032215402217157     -1.385449485600013     -3.698003070686354
C       0.328152490178218     -2.494293530823361      3.511079024561138
C       4.111605890882577      0.038262286999660     -0.554677701584422
C      -4.033033067366084      0.043214063760401      0.332776271658649
C      -0.206225043448130      2.701795710457652     -3.623252391642652
H      -2.347720766506588     -1.530035783732041     -4.447609904085222
H       2.834979222643065     -4.660311826676456      0.102510742064899
H       2.433109999673172      1.731767838992935      4.273905160408748
H      -2.875621177419660      4.766806011764397     -0.138893641630493
H       2.563791792120064     -1.718742844138355     -4.592427624818879
H      -0.249101871801861      3.377885151943636     -4.477489772914495
H       3.238548066789977      3.855902851643961      0.237089989744305
H       5.196403824167110      0.014398540669945     -0.612503720319246
H      -2.965462189297825     -3.997365761431455     -0.127363301531216
H      -5.119118123888057      0.032197923359294      0.363587241925683
H      -2.578649023983647      1.882599308205257      4.425627018043476
H       0.385904070241360     -3.176402253468863      4.359300625239652
Al      3.009633296538010      5.035197113290743     -3.036893188038764
Al     -0.012875171568824      5.840997437699489     -2.040810489994231
H       0.200827538204844      5.978671165531091     -0.391434029107902
H      -0.090876530989240      7.327634823672807     -2.615156920799597
H       1.390005512908603      5.176071175535378     -2.653373325187517
H       3.324177717917282      5.870616772745091     -4.359092562120727
H       3.615408657769102      5.792881444547164     -1.678170638251622
H      -1.331584021296576      5.046556463945494     -2.459250399498595
Al      0.846368255144342      6.469936562794219      1.068009048937263
H       2.434615534104028      6.583097717032012      0.566618928921646
H       0.257505386881560      7.899418491292011      1.462727342697903
H       3.527113364926065      3.530144926539592     -3.162788571708935
Al      3.881561126669510      6.641347306589263     -0.264696491593593
H       4.311312972829743      8.145622535038411     -0.581484628951611
H       4.986657225553292      5.875265732139066      0.594873532780940
H       0.675533757451273      5.419759234083074      2.257926239296798
