92

Zr     -0.037121389767880      2.093110384512555      1.637466662087135
Zr      0.521363171754060     -2.125664346684109     -1.463938393462265
Zr      1.752025830062699     -1.476263045855707      1.666672295122070
Zr     -1.260729695620660      1.461213474928557     -1.497958912541040
Zr      2.071581831960549      0.878887252973327     -1.463954240772319
Zr     -1.597626697329615     -0.919163313314180      1.630492299847170
O      -1.463347249848329      0.967671171771173      0.570270388997292
O       1.949274180899966     -1.002124331167736     -0.403907457590242
O      -0.006460912063670     -1.976258967432722      0.605565519505662
O       0.496478467406670      1.953193793337301     -0.431801761828856
O       0.162927173948172     -0.063407264186779     -1.523744558659877
O       0.303086272353024      0.028054665288670      1.728767519488399
O      -1.618377446577096      2.361463649272664      2.802886697896278
O      -0.714562552917596      3.805281445634185      0.857003976391483
O       0.809974286116749      1.613918401011747      3.461342845104055
O       1.785437653736168      2.908847462009926      1.480505709656313
O      -1.300229505523537     -2.931193352570328     -1.314586248943697
O      -0.289762765726855     -1.619401176236515     -3.297931616679067
O       1.192569160069892     -3.835886106155043     -0.670147936453234
O       2.109976313365408     -2.408683209249704     -2.617282025487680
O       1.022399225310961     -2.880412945600036      2.858444955475903
O       1.884740296816802     -0.478101287454098      3.467061892193454
O       2.721701146355488     -3.054549231570913      0.912013843248448
O       3.505747953426892     -0.508454319264651      1.470959351650214
O      -3.002549305704751      0.487373911512216     -1.334398873791189
O      -2.239759201510513      3.028289293572942     -0.730535111935765
O      -1.340674744992765      0.484734278897712     -3.315855640954275
O      -0.534107360100734      2.888593710197055     -2.662905347109698
O       1.656902289750215      2.152053291666188     -2.928109018378790
O       2.830625816398160      2.570214059869028     -0.589953569572239
O       2.751531120340425     -0.202485490956229     -2.983216540482841
O       3.901593475862087      0.368914985650076     -0.668379617778178
O      -3.409573026896004     -0.432639029709788      0.785299442226978
O      -2.315282848261555      0.164924259555909      3.125617216438883
O      -2.324811789849842     -2.637891431883014      0.775155279927486
O      -1.175020384884151     -2.159944173156066      3.117578902963665
C      -2.349495400297749      1.443056797967752      3.358811351084991
C      -1.736692839394310      3.934148693531841      0.059404237937552
C       1.542293397912059      0.669438084967312      3.964835346753171
C       2.665287305742190      3.149223231047533      0.558097528027264
C      -2.152722444412079     -3.209718834227512     -0.376266406914580
C      -0.975664617239733     -0.651837870950788     -3.822245956872981
C       2.219085477529615     -3.960948526901061      0.122485748457401
C       2.814018791467503     -1.483413831368150     -3.196708844533666
C      -0.163184768333245     -2.929678214110231      3.386112771694392
C       4.251109750054201     -0.081456064091824      0.497105248839421
C      -3.750351320278038      0.017279530469922     -0.382764038094272
C       0.655830913766569      2.941424225114138     -3.179877583662179
H      -1.276816750736189     -0.810905231535785     -4.851967394250918
H       2.713726485404803     -4.934737090926439      0.125624816556437
H       1.907094138102548      0.859328136205304      4.968572258747503
H      -2.225928853660822      4.910679459813768      0.051488022221828
H       3.527494322105972     -1.820641073142197     -3.949390196928816
H       0.829599362613680      3.733928303500532     -3.907928516004751
H       3.372712164465577      3.941777907408444      0.785591954336214
H       5.320516854899870     -0.090719881021422      0.690851010704165
H      -2.833020975644606     -4.029287600908305     -0.592764434448950
H      -4.814743184938906     -0.016613491498872     -0.600465582765552
H      -3.064259307412836      1.780381500134407      4.110465395372954
H      -0.325344338158002     -3.696654357072851      4.144149063137111
Al      3.046834478304585      1.409707931016446     -5.801025630988056
Al      5.519688706925500     -0.557509921601489     -5.792794200493669
Al      5.330479744132123      2.533511398980678     -6.696296076083439
Al      3.022749352005522      4.569165730278941     -5.726794311794290
Al      6.973411489351903      3.331548025008058     -3.963229866128754
Al      6.297780152065764      0.348998239606482     -2.769724372209949
Al      4.215665033621737      4.587791842836026     -2.703140467342450
Al      6.340538027153960      2.973724849057561     -0.888844053886265
H       6.984930633044456      3.265133427471206      0.540566508658070
H       7.156233488694973      3.393769150599693     -2.293291993139852
H       5.075807180977156      3.935705165840573     -1.417883970474476
H       6.311472906984667      1.400493740960408     -1.460620166804647
H       4.811365978410616      0.877356658174096     -3.016790641642060
H       7.810304391751429     -0.125126501837992     -2.557937323166653
H       6.098841593553228     -0.446629576957492     -4.229836228226295
H       5.759572576280995     -1.888806173995933     -6.638558962617164
H       6.819958935791946      1.694527354332581     -3.616664238590186
H       5.862678689391149      0.942821552028614     -6.452660706506127
H       6.409191742412613      3.066122882141381     -5.515020538717981
H       6.248672941041237      2.993004745093399     -7.938996085908325
H       4.410708006670855      3.928247837745299     -6.410066128619102
H       3.462045524958546      4.935607877091226     -4.157785569398369
H       2.127506129341785      5.594562232557047     -6.558431969021004
H       4.743083810545346      6.077536970631025     -2.460003019374666
H       8.402616693178166      4.000831909857681     -4.266557728460160
H       5.593428979271541      4.208528114760140     -3.573383462642895
H       1.645313530676544      0.704523395533098     -5.420641495822163
H       3.929420212658858     -0.033196942252644     -5.721726786197451
H       2.455575150659896      2.992231746101354     -5.691871146364289
H       3.877598061545957      1.827975880813330     -7.209603260108613
H       3.751448503185239      3.084465590230837     -2.973471879107058
H       4.495514170204929      2.110687071842989     -5.286357752660112
