72

Zr     -0.367072068092762      2.088471163880889      1.630616382511822
Zr      0.130043453556996     -2.179598363223995     -1.463078000322560
Zr      1.836152952235776     -1.292983590279790      1.372059961702759
Zr     -1.795808776849527      1.371513764883752     -1.402243909828960
Zr      1.512569764865337      0.943700876431487     -1.726068513717919
Zr     -1.541867103216421     -1.041047094539308      1.781685405273326
O      -1.793746016972606      0.845574020529097      0.695719225972912
O       1.654186247466286     -0.946489674693408     -0.710948964062979
O       0.002861812864216     -1.984396980982363      0.634836664714055
O       0.010908512665723      1.968079930913897     -0.494377727491875
O      -0.331487412734667     -0.111379209371475     -1.528832874434528
O       0.250898877545316      0.098195508236782      1.585696179805966
O      -1.824785974039921      2.161270419255707      2.972402996085294
O      -1.277321469604065      3.725758613414975      0.963399372238487
O       0.729093519449995      1.672746301565480      3.335746823146557
O       1.326162224837614      3.090393310247334      1.333864838772567
O      -1.490881184179466     -3.256553463799380     -0.835235236682624
O      -1.151016773034878     -1.841883917394094     -3.025562501503091
O       1.138465025441449     -3.778975207372879     -0.839173782278146
O       1.417235037762748     -2.278733073918145     -2.973880317737982
O       1.357927967625845     -2.595469199169007      2.802988238491111
O       2.195063650370715     -0.138614191528853      3.026411790239691
O       2.747606283496546     -2.884204393220129      0.598539566723751
O       3.517059458297440     -0.312911086163220      0.763770648967229
O      -3.453960044622442      0.312434172972225     -1.128677744125739
O      -2.801361905352647      2.880746451903870     -0.585665598744081
O      -2.010313031240651      0.340715575952612     -3.185662714738321
O      -1.227227066629664      2.794762563867639     -2.657878397416844
O       1.067834724995891      2.470080053657574     -2.895290532078457
O       2.422122388450211      2.403033607900358     -0.613779261198535
O       1.653964639170263     -0.013496867658845     -3.456721566210910
O       3.482028286118588      0.368630185563168     -1.489914762944269
O      -3.281280073579770     -1.108275699603918      0.719838200586113
O      -2.634993067526358     -0.020712087930494      3.066294953127405
O      -1.963716997287904     -3.041902435172431      1.462348869821248
O      -0.701135954196920     -1.722379946788719      3.446853600688251
C      -2.608966078592147      1.228396985606987      3.421277674182901
C      -2.341906396563235      3.796237970160147      0.217514790405379
C       1.712676542115250      0.889620838220831      3.652040334536799
C       2.262946152178082      3.136915758601481      0.441885347723481
C      -1.961256025449779     -3.650414202854253      0.313623799848888
C      -1.835828290661679     -0.884960828290133     -3.571255176750900
C       2.238664676568086     -3.822659592274916     -0.145550527348447
C       1.813829849573332     -1.280616893683530     -3.707140796232062
C       0.327109868868332     -2.507329151755008      3.591495780858502
C       4.052885638634398      0.018641738368912     -0.375685183167828
C      -3.886514544899125     -0.578505381293354     -0.295796976792149
C      -0.056512479219664      3.069086395292148     -3.148965067222376
H      -2.326660650312101     -1.146888364988490     -4.502657218014612
H       2.800187563867058     -4.757186080054202     -0.192564431266142
H       2.199422033769004      1.122739209881278      4.593027587501749
H      -2.912430002437238      4.725558979315402      0.271726384660371
H       2.324558601297738     -1.533293879368005     -4.638214497709719
H      -0.012010888273298      3.898935772471602     -3.854535046350158
H       3.027437771839767      3.889699142702539      0.606823981690414
H       5.140734190271806      0.013497489590423     -0.395905083731972
H      -2.429818606746153     -4.632389543225680      0.310363455949730
H      -4.894269625835729     -0.937322579550143     -0.481649592780930
H      -3.329747833058828      1.528869021165558      4.181940985586885
H       0.330646713002516     -3.150188783882826      4.473771302149797
Al     -4.313657610991418     -2.793202079323768      4.147453795011858
Al     -5.863918741975714     -0.893066603416502      2.932581401915228
H      -6.134598708969527     -1.807801299581888      1.557737803444660
H      -7.246000168609906     -0.985594665860237      3.753676905935202
H      -4.667646939672281     -1.159803239757153      4.074080645228522
H      -5.400033537450499     -3.473997344682402      5.123353400489727
H      -4.196229627247885     -3.678083232312553      2.730868281064725
H      -5.231030594076708      0.394437269884518      2.202022368364259
Al     -5.535115017231965     -3.353201043126949      1.777161109697415
H      -4.866530709433824     -3.522856374661396      0.323698172133404
H      -6.771265489920903     -4.228599812456943      2.325456760339514
H      -2.756504213004802     -2.717120122283707      4.545429757429047
