88

Zr      0.447753488374293      1.950037937227435      1.078216085748951
Zr     -0.368080089387063     -2.324906883335507     -1.900608889820031
Zr      1.736865074623097     -1.825124756511772      0.757426212198162
Zr     -1.768457804284370      1.407375971826433     -1.480918303103095
Zr      1.375602095248684      0.512092390723455     -2.422951343813681
Zr     -1.373939027156539     -0.862612159636307      1.660863251500782
O      -1.339707286472205      0.984027171311034      0.553481366000642
O       1.407438568637373     -1.352964115528604     -1.307588420487725
O      -0.299980942212821     -2.113805081351653      0.237913272856567
O       0.263321519991361      1.731012721594760     -1.032655554007258
O      -0.543029469690779     -0.242607608054360     -1.916590028438578
O       0.568026993229482     -0.151715737569260      1.154989141246021
O      -0.640793441864859      2.353304521106931      2.692174318286975
O      -0.280859875607413      3.715197905197023      0.497690221460776
O       1.792976488762474      1.403923355514629      2.539449129007810
O       2.177891356799302      2.601516707487232      0.283281097796739
O      -2.146089782343958     -2.947419545841717     -1.270383065509397
O      -1.623038759903749     -1.737326043899317     -3.443208785643674
O       0.310576110402604     -4.099801532206776     -1.274769777286165
O       0.787859336111439     -2.778707942564981     -3.434666382405434
O       1.210638257523132     -3.117557655204722      2.160574127814352
O       2.492519809500361     -0.837533188953479      2.410459248350330
O       2.278808845130019     -3.504777691121320     -0.172941900148767
O       3.468187396379494     -1.081765403375043      0.069373461855527
O      -3.469227220576200      0.677793327395096     -0.644940162296988
O      -2.274317862198367      3.103709396191790     -0.555430156065688
O      -2.561883048809582      0.388044036090881     -3.077535275892852
O      -1.294693978953186      2.685920189754756     -2.923444916024934
O       0.561873217522429      1.627108681073253     -3.842857461926720
O       2.357345869816760      2.283334401870963     -2.035658228735811
O       1.715659763752260     -0.707013720771149     -3.950111600405191
O       3.308522670225588      0.007974281639388     -1.997040830266861
O      -3.247334172489139      0.012960297515250      1.600978005884023
O      -1.205053793832186      0.188844509715390      3.335685171667775
O      -2.653043481738711     -2.268144053347281      0.910078308874197
O      -0.871234624804083     -2.347785744519161      2.863981354288538
C      -1.120103550511521      1.474080066244158      3.521753092280341
C      -1.471482305644980      3.949519527849093      0.024598608311662
C       2.488723124819876      0.367267340668782      2.889934874072445
C       2.604178874855005      2.884189100020794     -0.911493906657917
C      -2.840555727891609     -2.947486610885001     -0.177075619390549
C      -2.433386208576771     -0.753037085548430     -3.680627841790240
C       1.492261951655544     -4.343839835970282     -0.784173031636924
C       1.506015944854331     -1.972934010442305     -4.155517203189883
C       0.150850413493555     -3.147570924598631      2.909940644121513
C       3.941370160981610     -0.554470232378151     -1.016323614783875
C      -3.895817447609015      0.447848304059826      0.562646121564884
C      -0.355958838770592      2.547312352704162     -3.811104627935139
H      -3.094008889094306     -0.898763341372950     -4.528620702591196
H       1.863962284486538     -5.364591317613016     -0.896505256873707
H       3.159733641047229      0.528425643196789      3.726804694562693
H      -1.837707952043805      4.973397362054695      0.123420729437630
H       1.974630106901930     -2.409083888996411     -5.037383357591525
H      -0.346286043548687      3.271959396526340     -4.626429542988324
H       3.273403858503026      3.738949789393824     -0.977760821376957
H       5.022873397576418     -0.577375639478992     -1.113414316548850
H      -3.708864047062089     -3.599645031851510     -0.175864402957727
H      -4.955252290014985      0.633788831150000      0.724353276471922
H      -1.477442297302363      1.853181215066399      4.481048593152580
H       0.115290885717082     -3.932874959497568      3.665053990595748
Al      2.526701313628063     -2.009083598073601     -7.909607490667992
Al      0.504020742534614      0.365556873396992     -6.744615555518781
Al      4.758589859105576     -1.405038448662782     -5.582187319974721
Al      3.383900458270470      1.459638779553019     -5.807715432285526
Al      6.435592375548904      0.681219626507871     -5.148964872665149
Al      5.115441629019118      2.426926050092598     -3.395421721098444
Al      3.728509981423483      4.439027985829495     -4.597496003413370
H       3.001316708092478     -1.707220263015498     -9.403197264774846
H       1.835195751768748     -3.441493967020208     -7.778840152260171
H      -0.188317519082013      1.337008979666028     -7.803842027875406
H      -0.555483783312285     -0.217344602179303     -5.703517537030691
H       1.411649739553240     -0.867180347935220     -7.414311313960156
H       3.829523841559711     -1.985267406368075     -6.863384001398452
H       4.736541099453301     -2.693394549243556     -4.614854498814173
H       5.833789247565511     -0.350711075384462     -6.343401252246758
H       6.578086667358315      1.872312740294398     -3.976798111559916
H       5.066220147156707      1.392067203626947     -5.860115607105738
H       5.466322022234485     -0.466109655379499     -4.377160889226555
H       7.247072532460202      1.618954577026651     -6.182016995138720
H       4.919742066214289      4.078076843543077     -3.485600558273741
H       4.733234788979505      5.030271123769716     -5.697896562246200
H       2.404603770823622      4.460647018070552     -3.690470785738872
H       3.336926584098737      3.123096371450303     -5.567744471276221
H       1.729540533529871      1.176606521557690     -5.944259457119282
H       3.569867646260362     -0.201185250341445     -5.613809618031400
H       3.378102101665248      1.457500062740244     -7.414219401256833
H       3.815679449284837      1.686319491591216     -4.188764165360435
H       5.175178347443500      2.068095571342081     -1.830658407946534
