32
Coordinates from ORCA-job run
  Al  0.62006644594436     -2.39663644415010      2.27581285731607
  Al  -0.59769759930010     -2.08531774062701     -0.68165247843138
  Al  1.74600015131660     -2.66916207163991     -1.84044898256578
  Al  1.26609689204545     -4.96678413803156      2.10795737753615
  Al  -1.28227226428485     -5.21087646436473     -0.22735271239086
  Al  1.47938315371384     -5.97491084740986     -0.91660405529797
  Al  -0.08251510844684     -7.67049236790449      1.26400124047806
  Al  1.62718749604067     -0.20114050925101     -0.01212189793457
  H   -0.22350723172567     -5.98950527898006     -1.31349860108642
  H   0.24808215685259     -2.12346743832267     -2.38415882703123
  H   -0.65695959766982     -2.25475763198287      1.18831962278261
  H   1.01471888941721     -7.52962408253099      0.03602968482451
  H   -1.39943533069952     -6.89616348831194      0.64391226345876
  H   2.37904846921842     -6.82184634110207     -1.90514789562762
  H   -2.86313114095862     -5.21310968593616     -0.28448252009531
  H   0.05767345500706     -0.41427260349200     -0.49705066003172
  H   2.07389720975149      1.31369883148872      0.14001635915256
  H   2.40821070953532     -1.02640246993355     -1.22647728203861
  H   1.66100525892846     -1.06752245977674      1.39129541653373
  H   -0.18648044043826     -4.81060910970713      0.93809814016821
  H   2.09193766634074     -5.45448905231140      0.55101617262934
  H   1.04620404316736     -2.61821084982919     -0.29067460885068
  H   0.11163789969308     -4.01083685092334      2.97535022995226
  H   -0.93173348990552     -3.73652729840656     -1.02026692797057
  H   1.48955975578618     -4.39335556781907     -1.63136694293687
  H   2.49037520909860     -5.27322598363784      3.07539363557929
  H   0.65191714618934     -1.58008851093131      3.63124229017721
  H   3.00204232253400     -2.76260130396853     -2.80322056178640
  H   -0.29342124987378     -9.13270719946961      1.83544017424700
  H   0.48031535936196     -6.56966679456040      2.37783670279826
  H   -2.04490450568790     -1.49153450943361     -0.95137754357224
  H   1.81610826904802     -3.35091373674207      1.58046033001413
