32
Coordinates from ORCA-job run
  Al  0.61994577008265     -2.39821181374518      2.28033450914903
  Al  -0.60032046896167     -2.08483398692693     -0.68536126450176
  Al  1.74517846762643     -2.66593298922117     -1.84174099072481
  Al  1.26308249932724     -4.96643660401946      2.10502757276087
  Al  -1.28400382550290     -5.21223183271368     -0.22282906700693
  Al  1.48153213971447     -5.97506191906342     -0.91669741969261
  Al  -0.08136265417648     -7.67677165817677      1.26519739150696
  Al  1.62781870865763     -0.19844100227419     -0.01018523576571
  H   -0.22143160041907     -5.98635859797739     -1.30763397939418
  H   0.24408064516642     -2.12829353861685     -2.38584122278759
  H   -0.65397847406916     -2.25418208926636      1.18904140893220
  H   1.01625515049611     -7.52652933151762      0.03922546597725
  H   -1.39511507716582     -6.90039563233211      0.63979815862155
  H   2.38358406898018     -6.82270722912645     -1.90300690819671
  H   -2.86543577588378     -5.21753087929232     -0.27682213492130
  H   0.06187703624036     -0.41396148477103     -0.50484436072948
  H   2.08054662088007      1.31548163165734      0.13249713431766
  H   2.40854026521815     -1.02859247729391     -1.22311190521599
  H   1.65490256131949     -1.06178545199988      1.39345083309303
  H   -0.17814457817761     -4.80823889865435      0.92946272359344
  H   2.09209915852381     -5.44929024050663      0.55010690982730
  H   1.04356797734242     -2.61525893301627     -0.29170578207344
  H   0.10474493334155     -4.01039556511614      2.96678967929870
  H   -0.94547682523989     -3.73510638634502     -1.01736037273366
  H   1.49563645102243     -4.39389147436356     -1.63381150123142
  H   2.47847443266637     -5.27868396087226      3.08247545395380
  H   0.66152095055882     -1.58325213693721      3.63759376199218
  H   3.00011715581130     -2.76417445183767     -2.80666323843827
  H   -0.29143191050820     -9.14076959116687      1.83301607986182
  H   0.47690236242331     -6.57130122571798      2.37410134499770
  H   -2.04493303313281     -1.48134831413127     -0.94999802540463
  H   1.82063686783804     -3.34857193465653      1.58577498093491
