12
XYZ file generated by Avogadro.
Al    -0.23105    1.51644    2.56562
Al     0.00006   -0.00048   -0.08118
H      0.86898   -0.93765    1.06941
H     -1.10790   -0.90202   -0.77400
H     -0.85902    0.94397    1.07086
H     -1.47382    2.18628    3.29211
H      0.31338   -0.02237    3.32955
H      1.10213    0.89666   -0.78890
Al     0.25722   -1.51372    2.56947
H      1.51330   -2.16462    3.29025
H     -1.17701   -2.15022    2.32106
H      1.21006    2.13279    2.30612
