68

Zr     -0.382005851779833      2.129127068780804      1.474177345495758
Zr      0.308085191914445     -2.215736449826677     -1.413245420813640
Zr      1.836908312398274     -1.175236802112499      1.478012117275922
Zr     -1.883844891051281      1.128786029462181     -1.437968385815340
Zr      1.482926953965912      0.932713660399200     -1.809339028448848
Zr     -1.552528922839225     -1.024318730535468      1.849514038276895
O      -1.703991680926477      0.753669948922991      0.629710878734732
O       1.642403048529381     -0.840092217307896     -0.589394760349165
O       0.017972832325908     -2.005713088052423      0.714989865181712
O      -0.065078144527524      1.930764218922792     -0.653921256201547
O      -0.300369541503490     -0.196647825025701     -1.613634392745392
O       0.221384064008684      0.110714506687121      1.701886510401826
O      -1.859639368745443      2.247900128135513      2.803896760719444
O      -1.346208144666714      3.698230457553624      0.710745016070068
O       0.713351507480174      1.913878045169301      3.215875799778801
O       1.279258540590234      3.154548428195893      1.098142533411909
O      -1.314867775700021     -3.287575931155294     -1.006586604800912
O      -0.809910801063288     -1.984856183740221     -3.139669645096527
O       1.304741791551410     -3.767468590207740     -0.657955847974652
O       1.758105135587273     -2.328097932649284     -2.776620657266482
O       1.426183834898205     -2.404966352128931      2.962627522951859
O       2.206894645126235      0.104152092425826      3.054980810625318
O       2.833798775610492     -2.746314023747013      0.778427755238816
O       3.495836173931913     -0.152938608764519      0.826990706954432
O      -3.537492732289542      0.096212173772852     -0.836186823584908
O      -2.891411517121420      2.684541770772765     -0.713267603391585
O      -2.207663254653538     -0.096589916334397     -3.064591769047468
O      -1.454492750322502      2.407631988119593     -2.879748061084600
O       0.860123988094078      2.286626988186399     -3.109964576020737
O       2.314692726117029      2.550736713148472     -0.909031172292729
O       1.803130501294098     -0.108406320832747     -3.471528593496997
O       3.460070395979149      0.439636924411136     -1.449766349095658
O      -3.523589857102150     -0.578693330124834      1.415658204252751
O      -1.967776002340223      0.025489963590526      3.484044905038289
O      -2.329314924530768     -2.707324857613553      1.019098765326755
O      -0.889165206691399     -2.316180444486958      3.194675640766882
C      -2.236438024206176      1.293272603950774      3.602964960374727
C      -2.436112683705109      3.674437669551535     -0.000862576128336
C       1.713095639580179      1.177659577532451      3.590409469616000
C       2.147842378139853      3.282977709152860      0.146289302375732
C      -2.126783543634037     -3.464591376445052     -0.012403668276971
C      -1.726938358441283     -1.183308942524532     -3.583778151817710
C       2.389958756644427     -3.736292292278680      0.059707143966257
C       2.095177289905610     -1.371483446396553     -3.591624455918762
C       0.297167812841514     -2.739970626292890      3.508517903100600
C       4.029887695327263      0.161025182344801     -0.316588841677167
C      -4.083130481630424     -0.255881777504132      0.289926913756397
C      -0.317828602016254      2.743533699370367     -3.409577632447834
H      -2.154125382160071     -1.461523478365102     -4.541050072943595
H       2.996413660137601     -4.643754572975233      0.059655488337905
H       2.203825622009589      1.500251322928269      4.502641895428326
H      -3.034734631950591      4.587364644942918     -0.001478642494410
H       2.674655838591251     -1.659506099690960     -4.471403657452565
H      -0.356400946030529      3.495873667152628     -4.197133426871053
H       2.842043543252283      4.111030860104098      0.255173281234249
H       5.115963259921958      0.206369672290071     -0.323307920812766
H      -2.742290871225417     -4.358316518109863     -0.064162137800342
H      -5.169247987219083     -0.294031580002915      0.287341532886814
H      -2.833647615473665      1.587641351214165      4.468328534627499
H       0.350858735342153     -3.460265392600894      4.324511449061163
Al     -4.854588218711669     -2.671031142914838     -2.503104383982844
Al     -5.746782225646834     -0.416377625991566     -3.477353786249317
H      -4.760000312889225     -1.710705817280977     -3.872036083099018
H      -7.117090713721796     -0.898800540117838     -4.157641110822679
H      -5.812219534974266     -1.359850445984862     -2.094371215259979
H      -3.514765849666667     -2.167898198913753     -1.783015922450040
H      -5.997946691332127     -3.706159706562809     -2.944351248771850
H      -4.678736271065564      0.706107512947944     -3.061222809667853
