24
Coordinates from ORCA-job run
  Al  -0.02013085609726      0.02630701591268      4.95857123665597
  H   1.36992536031597      1.06673731800776      4.94264566116359
  H   -0.72000513876274      0.96837398526263      3.66638337454765
  H   0.68446266152313     -0.91088485979496      3.66586902371364
  Al  -0.02070148985555      0.03086947932888      7.55630130786638
  H   0.69791439561297     -0.89104450879009      6.27514705499780
  H   -1.14952524767251     -0.85387690804849      8.23034082002815
  H   -0.74250826007487      0.94483041424718      6.27159576543628
  Al  -1.91056686885336     -2.04028419277690      3.65917485959954
  H   -1.40534663627478     -1.01079475594366      2.38873504411729
  H   1.11092590446235      0.92086099958909      8.21881952343861
  H   1.37434285302977      1.07104998224128      2.39831541484411
  Al  -0.01528377682747      0.03107111576943      2.37363492915531
  H   0.70384549392362     -0.88527874010684      1.05691675359743
  H   -0.73692095065927      0.95031705267504      1.06075824484887
  H   -0.98000856040044     -3.32740022569581      3.65945176758966
  Al  1.87149995609584      2.09924398432376      3.67360556315689
  H   0.93598048512791      3.38266415497374      3.67381812455139
  H   3.45973661175316      2.08264855111287      3.67521365054086
  H   -1.40959297931026     -1.01463722904694      4.93484538128975
  Al  -0.02267002939064      0.03072373868708     -0.22410482275416
  H   -1.15600584613622     -0.85766619107288     -0.88571428988967
  H   1.10422986662077      0.91732293117594     -0.89904891939246
  H   -3.49878694815013     -2.01793311203078      3.65734453089693
