24
XYZ file generated by Avogadro.
Al    -0.00344    0.01710    4.93134
H      1.20350    1.26330    4.95650
H     -0.85310    0.83859    3.66663
H      0.84853   -0.79179    3.66578
Al     0.00000   -0.00000    7.33221
H      0.87790   -0.84392    6.14399
H     -0.92546   -0.96391    8.20657
H     -0.88158    0.86126    6.15864
Al    -1.97767   -2.02107    3.65427
H     -1.20434   -1.21757    2.37875
H      0.93918    0.94244    8.21579
H      1.21098    1.27329    2.38793
Al     0.00462    0.02803    2.40049
H      0.89420   -0.82532    1.18883
H     -0.86494    0.88069    1.17366
H     -1.63892   -3.58090    3.63947
Al     1.87617    2.15248    3.67708
H      1.32979    3.65191    3.68680
H      3.47139    2.09354    3.68628
H     -1.20889   -1.22981    4.94252
Al     0.00000   -0.00000    0.00000
H     -0.94302   -0.98786   -0.82773
H      0.91929    0.91730   -0.92944
H     -3.54938   -1.74456    3.65226
